version 2
run MobileNetwork_1-0-20190310-20:42:11-888
attr configname MobileNetwork_1
attr datetime 20190310-20:42:11
attr experiment MobileNetwork_1
attr inifile omnetpp.ini
attr iterationvars ""
attr iterationvarsf ""
attr measurement ""
attr network Networks.MobileNetwork
attr processid 888
attr repetition 0
attr replication #0
attr resultdir results
attr runnumber 0
attr seedset 0
param **.destAddresses "\"1 3\""
param **.sendIaTime "uniform(500ms, 2500ms)"
param **.rte*.mobility.typename "\"AnsimMobility\""
param **.rte*.mobility.ansimTrace "xmldoc(\"ansimtrace.xml\")"
param **.rte*.mobility.nodeId -1
param **.appType "\"App\""
param **.app.packetLength "4096 bytes"
param **.constraintAreaMinX 0m
param **.constraintAreaMinY 0m
param **.constraintAreaMinZ 0m
param **.constraintAreaMaxX 2000m
param **.constraintAreaMaxY 2000m
param **.constraintAreaMaxZ 0m

vector 0 MobileNetwork.rte[0] coordX:vector ETV
attr interpolationmode linear
attr source xCoord(mobilityPos(mobilityStateChanged))
attr title "coord X, vector"
vector 1 MobileNetwork.rte[0] coordY:vector ETV
attr interpolationmode linear
attr source yCoord(mobilityPos(mobilityStateChanged))
attr title "coord Y, vector"
vector 2 MobileNetwork.rte[0] coordZ:vector ETV
attr interpolationmode linear
attr source zCoord(mobilityPos(mobilityStateChanged))
attr title "coord Z, vector"
vector 3 MobileNetwork.rte[1] coordX:vector ETV
attr interpolationmode linear
attr source xCoord(mobilityPos(mobilityStateChanged))
attr title "coord X, vector"
vector 4 MobileNetwork.rte[1] coordY:vector ETV
attr interpolationmode linear
attr source yCoord(mobilityPos(mobilityStateChanged))
attr title "coord Y, vector"
vector 5 MobileNetwork.rte[1] coordZ:vector ETV
attr interpolationmode linear
attr source zCoord(mobilityPos(mobilityStateChanged))
attr title "coord Z, vector"
vector 6 MobileNetwork.rte[2] coordX:vector ETV
attr interpolationmode linear
attr source xCoord(mobilityPos(mobilityStateChanged))
attr title "coord X, vector"
vector 7 MobileNetwork.rte[2] coordY:vector ETV
attr interpolationmode linear
attr source yCoord(mobilityPos(mobilityStateChanged))
attr title "coord Y, vector"
vector 8 MobileNetwork.rte[2] coordZ:vector ETV
attr interpolationmode linear
attr source zCoord(mobilityPos(mobilityStateChanged))
attr title "coord Z, vector"
vector 9 MobileNetwork.rte[3] coordX:vector ETV
attr interpolationmode linear
attr source xCoord(mobilityPos(mobilityStateChanged))
attr title "coord X, vector"
vector 10 MobileNetwork.rte[3] coordY:vector ETV
attr interpolationmode linear
attr source yCoord(mobilityPos(mobilityStateChanged))
attr title "coord Y, vector"
vector 11 MobileNetwork.rte[3] coordZ:vector ETV
attr interpolationmode linear
attr source zCoord(mobilityPos(mobilityStateChanged))
attr title "coord Z, vector"
vector 12 MobileNetwork.rte[4] coordX:vector ETV
attr interpolationmode linear
attr source xCoord(mobilityPos(mobilityStateChanged))
attr title "coord X, vector"
vector 13 MobileNetwork.rte[4] coordY:vector ETV
attr interpolationmode linear
attr source yCoord(mobilityPos(mobilityStateChanged))
attr title "coord Y, vector"
vector 14 MobileNetwork.rte[4] coordZ:vector ETV
attr interpolationmode linear
attr source zCoord(mobilityPos(mobilityStateChanged))
attr title "coord Z, vector"
vector 15 MobileNetwork.rte[1].app endToEndDelay:vector ETV
attr interpolationmode none
attr title "end-to-end delay of arrived packets, vector"
attr unit s
vector 16 MobileNetwork.rte[3].app endToEndDelay:vector ETV
attr interpolationmode none
attr title "end-to-end delay of arrived packets, vector"
attr unit s
0	0	0	50
0	0	0.1	50
0	6	0.2	50
0	11	0.3	50
0	16	0.4	50
0	21	0.5	50
0	26	0.540436798241	50
0	28	0.547717285212	50
0	28	0.55724999395	50
0	28	0.563718714129	50
0	28	0.570531633726	50
0	28	0.576853052184	50
0	28	0.583752082988	50
0	28	0.590769794639	50
0	28	0.597246657757	50
0	29	0.6	50
0	33	0.604636943234	50
0	33	0.611846616891	50
0	33	0.619455511924	50
0	33	0.626040445632	50
0	33	0.632642898083	50
0	33	0.639409184071	50
0	36	0.646404195878	50
0	36	0.655702256708	50
0	36	0.662349615382	50
0	36	0.669037932573	50
0	39	0.676941432106	50
0	39	0.686900503234	50
0	39	0.69432927991	50
0	40	0.7	50
0	44	0.701235466197	50
0	44	0.709473542348	50
0	44	0.716235140169	50
0	44	0.723542768682	50
0	44	0.730925405212	50
0	44	0.738094367348	50
0	44	0.744890015199	50
0	44	0.751376747584	50
0	44	0.75895208658	50
0	44	0.765118059849	50
0	44	0.772235947206	50
0	44	0.779320031	50
0	44	0.785866227041	50
0	44	0.793762818616	50
0	45	0.8	50
0	49	0.800824449563	50
0	49	0.80840941083	50
0	49	0.81574319343	50
0	49	0.822735984917	50
0	49	0.829657715565	50
0	49	0.836623858973	50
0	49	0.843383236474	50
0	49	0.851137460432	50
0	49	0.857820595464	50
0	49	0.864680642134	50
0	49	0.871815800708	50
0	49	0.879162413884	50
0	49	0.886138673555	50
0	49	0.892831431916	50
0	49	0.89963793649	50
0	50	0.9	50
0	54	0.907576719446	50
0	54	0.914789847346	50
0	54	0.922271919652	50
0	54	0.929426077359	50
0	54	0.936271072603	50
0	54	0.94332382121	50
0	54	0.950711885837	50
0	54	0.957743908454	50
0	54	0.964462573906	50
0	54	0.97146375427	50
0	54	0.978555240544	50
0	54	0.985940838383	50
0	54	0.993190483629	50
0	54	0.999979962923	50
0	55	1	50
0	59	1.00704307426	50
0	59	1.016170392537	50
0	59	1.02338179358	50
0	60	1.031499461499	50
0	60	1.040596924978	50
0	60	1.047818195288	50
0	60	1.055005415569	50
0	60	1.062317732248	50
0	61	1.069684577422	50
0	61	1.086733060982	50
0	62	1.1	50
0	66	1.102749191677	50
0	66	1.118838878043	50
0	66	1.133776362033	50
0	66	1.148019952228	50
0	66	1.162105115079	50
0	69	1.178361459712	50
0	69	1.195344103609	50
0	70	1.2	50
0	74	1.210707490712	50
0	75	1.221264232593	50
0	75	1.230889220566	50
0	75	1.23786967494	50
0	75	1.244898983244	50
0	75	1.252097060247	50
0	75	1.259579626016	50
0	75	1.266436957844	50
0	75	1.274637776719	50
0	75	1.28110847128	50
0	75	1.289266604252	50
0	75	1.295643044667	50
0	76	1.3	50
0	80	1.303338051436	50
0	80	1.31077299614	50
0	80	1.317743827714	50
0	80	1.324722801698	50
0	80	1.33255820223	50
0	80	1.339680777224	50
0	80	1.346475931612	50
0	80	1.353480072756	50
0	80	1.360657177302	50
0	80	1.367622333783	50
0	80	1.374600814303	50
0	80	1.382204774702	50
0	80	1.389458861119	50
0	80	1.396080312174	50
0	81	1.4	50
0	85	1.403309230902	50
0	85	1.410914425224	50
0	85	1.418172952811	50
0	85	1.424907163152	50
0	85	1.431811622053	50
0	85	1.439285304953	50
0	85	1.445876900681	50
0	85	1.452906209514	50
0	85	1.459699390048	50
0	85	1.466823198436	50
0	85	1.474019548582	50
0	85	1.480777939156	50
0	85	1.487561003427	50
0	85	1.494289044682	50
0	86	1.5	50
0	90	1.501827126401	50
0	90	1.509384946654	50
0	90	1.51679965936	50
0	90	1.523603202625	50
0	90	1.530732193172	50
0	90	1.538104219975	50
0	90	1.544561344029	50
0	90	1.551765096125	50
0	90	1.558953056336	50
0	90	1.565800765893	50
0	90	1.572887564529	50
0	90	1.580020502782	50
0	90	1.587309872622	50
0	90	1.594017434884	50
0	91	1.6	50
0	95	1.601281144101	50
0	95	1.608612705851	50
0	95	1.616234678456	50
0	95	1.623793979099	50
0	95	1.631011548169	50
0	95	1.638070465332	50
0	95	1.644713629303	50
0	95	1.6516183352	50
0	95	1.658771258984	50
0	95	1.665949350457	50
0	95	1.672797306482	50
0	95	1.679224821677	50
0	95	1.68649914062	50
0	95	1.693058660701	50
0	96	1.7	50
0	100	1.700797092774	50
0	100	1.708408949116	50
0	100	1.715593208616	50
0	100	1.72247521467	50
0	100	1.729360674967	50
0	100	1.736494846614	50
0	100	1.742902376279	50
0	106	1.759207570846	50
0	106	1.784210042219	50
0	110	1.8	50
0	114	1.802534049372	50
0	114	1.822824984728	50
0	114	1.840811136181	50
0	114	1.85847049136	50
0	114	1.875820862015	50
0	114	1.893128234027	50
0	115	1.9	50
0	119	1.910136451092	50
0	119	1.930357357452	50
0	119	1.94847496585	50
0	119	1.966279905442	50
0	119	1.98328627905	50
0	123	2	50
0	127	2.00197885522	50
0	127	2.023242197225	50
0	127	2.040803267158	50
0	127	2.056541149844	50
0	127	2.074124948289	50
0	127	2.092658424871	50
0	128	2.1	50
0	132	2.109679540871	50
0	135	2.129781278246	50
0	136	2.151459259901	50
0	136	2.178757914132	50
0	136	2.196906237164	50
0	137	2.2	50
0	141	2.213981409918	50
0	141	2.232735414039	50
0	141	2.252092640866	50
0	141	2.269549282888	50
0	141	2.286785398688	50
0	142	2.3	50
0	146	2.305893228117	50
0	146	2.325414468664	50
0	146	2.343079966507	50
0	146	2.360927291135	50
0	146	2.380521016426	50
0	146	2.397684032557	50
0	147	2.4	50
0	151	2.41653263501	50
0	151	2.435724007294	50
0	151	2.453813358124	50
0	151	2.471295800649	50
0	151	2.488304016397	50
0	152	2.5	50
0	156	2.507245376358	50
0	157	2.528181305848	50
0	157	2.549258521862	50
0	157	2.569292687307	50
0	157	2.587417666901	50
0	161	2.6	50
0	165	2.604551808893	50
0	165	2.621289647767	50
0	165	2.634630246515	50
0	165	2.64743750372	50
0	165	2.66046858106	50
0	165	2.671428281228	50
0	165	2.683732983607	50
0	165	2.695827177362	50
0	166	2.7	50
0	170	2.708802923687	50
0	170	2.722190533197	50
0	170	2.734238549107	50
0	170	2.745636737268	50
0	170	2.758602082832	50
0	170	2.770851454196	50
0	170	2.782753862125	50
0	170	2.794563080554	50
0	171	2.8	50
0	175	2.80737366586	50
0	175	2.821049578797	50
0	175	2.834908957308	50
0	175	2.847940034648	50
0	175	2.860908292746	50
0	175	2.874098706928	50
0	178	2.887538734027	50
0	179	2.9	50
0	183	2.904919328881	50
0	183	2.918605641688	50
0	183	2.931605517636	50
0	183	2.944366180537	50
0	186	2.956520954773	50
0	186	2.966439314381	50
0	186	2.973709685617	50
0	186	2.981144630321	50
0	186	2.988301748808	50
0	186	2.995910643841	50
0	187	3	50
0	191	3.004174134149	50
0	191	3.01268682927	50
0	191	3.020502737206	50
0	191	3.028197249982	50
0	191	3.036058557604	50
0	191	3.044286271025	50
0	191	3.050885268703	50
0	191	3.058272593399	50
0	194	3.065974508655	50
0	194	3.074205182856	50
0	194	3.081607311453	50
0	194	3.089446166228	50
0	194	3.096620556461	50
0	195	3.1	50
0	199	3.104368117871	50
0	199	3.111904472204	50
0	199	3.119770220997	50
0	199	3.126859239954	50
0	199	3.133806384758	50
0	199	3.141101182695	50
0	199	3.148661717261	50
0	199	3.156028562964	50
0	199	3.163416381124	50
0	199	3.170919178891	50
0	199	3.178364980318	50
0	199	3.185352343708	50
0	199	3.19301083313	50
0	200	3.2	50
0	204	3.20064810257	50
0	204	3.209283179777	50
0	204	3.216230571048	50
0	204	3.223426180735	50
0	204	3.230954639654	50
0	204	3.238161598998	50
0	204	3.245401621444	50
0	204	3.253509913559	50
1	0	0	50
1	0	0.1	50
1	6	0.2	50
1	11	0.3	50
1	16	0.4	50
1	21	0.5	50
1	26	0.540436798241	50
1	28	0.547717285212	50
1	28	0.55724999395	50
1	28	0.563718714129	50
1	28	0.570531633726	50
1	28	0.576853052184	50
1	28	0.583752082988	50
1	28	0.590769794639	50
1	28	0.597246657757	50
1	29	0.6	50
1	33	0.604636943234	50
1	33	0.611846616891	50
1	33	0.619455511924	50
1	33	0.626040445632	50
1	33	0.632642898083	50
1	33	0.639409184071	50
1	36	0.646404195878	50
1	36	0.655702256708	50
1	36	0.662349615382	50
1	36	0.669037932573	50
1	39	0.676941432106	50
1	39	0.686900503234	50
1	39	0.69432927991	50
1	40	0.7	50
1	44	0.701235466197	50
1	44	0.709473542348	50
1	44	0.716235140169	50
1	44	0.723542768682	50
1	44	0.730925405212	50
1	44	0.738094367348	50
1	44	0.744890015199	50
1	44	0.751376747584	50
1	44	0.75895208658	50
1	44	0.765118059849	50
1	44	0.772235947206	50
1	44	0.779320031	50
1	44	0.785866227041	50
1	44	0.793762818616	50
1	45	0.8	50
1	49	0.800824449563	50
1	49	0.80840941083	50
1	49	0.81574319343	50
1	49	0.822735984917	50
1	49	0.829657715565	50
1	49	0.836623858973	50
1	49	0.843383236474	50
1	49	0.851137460432	50
1	49	0.857820595464	50
1	49	0.864680642134	50
1	49	0.871815800708	50
1	49	0.879162413884	50
1	49	0.886138673555	50
1	49	0.892831431916	50
1	49	0.89963793649	50
1	50	0.9	50
1	54	0.907576719446	50
1	54	0.914789847346	50
1	54	0.922271919652	50
1	54	0.929426077359	50
1	54	0.936271072603	50
1	54	0.94332382121	50
1	54	0.950711885837	50
1	54	0.957743908454	50
1	54	0.964462573906	50
1	54	0.97146375427	50
1	54	0.978555240544	50
1	54	0.985940838383	50
1	54	0.993190483629	50
1	54	0.999979962923	50
1	55	1	50
1	59	1.00704307426	50
1	59	1.016170392537	50
1	59	1.02338179358	50
1	60	1.031499461499	50
1	60	1.040596924978	50
1	60	1.047818195288	50
1	60	1.055005415569	50
1	60	1.062317732248	50
1	61	1.069684577422	50
1	61	1.086733060982	50
1	62	1.1	50
1	66	1.102749191677	50
1	66	1.118838878043	50
1	66	1.133776362033	50
1	66	1.148019952228	50
1	66	1.162105115079	50
1	69	1.178361459712	50
1	69	1.195344103609	50
1	70	1.2	50
1	74	1.210707490712	50
1	75	1.221264232593	50
1	75	1.230889220566	50
1	75	1.23786967494	50
1	75	1.244898983244	50
1	75	1.252097060247	50
1	75	1.259579626016	50
1	75	1.266436957844	50
1	75	1.274637776719	50
1	75	1.28110847128	50
1	75	1.289266604252	50
1	75	1.295643044667	50
1	76	1.3	50
1	80	1.303338051436	50
1	80	1.31077299614	50
1	80	1.317743827714	50
1	80	1.324722801698	50
1	80	1.33255820223	50
1	80	1.339680777224	50
1	80	1.346475931612	50
1	80	1.353480072756	50
1	80	1.360657177302	50
1	80	1.367622333783	50
1	80	1.374600814303	50
1	80	1.382204774702	50
1	80	1.389458861119	50
1	80	1.396080312174	50
1	81	1.4	50
1	85	1.403309230902	50
1	85	1.410914425224	50
1	85	1.418172952811	50
1	85	1.424907163152	50
1	85	1.431811622053	50
1	85	1.439285304953	50
1	85	1.445876900681	50
1	85	1.452906209514	50
1	85	1.459699390048	50
1	85	1.466823198436	50
1	85	1.474019548582	50
1	85	1.480777939156	50
1	85	1.487561003427	50
1	85	1.494289044682	50
1	86	1.5	50
1	90	1.501827126401	50
1	90	1.509384946654	50
1	90	1.51679965936	50
1	90	1.523603202625	50
1	90	1.530732193172	50
1	90	1.538104219975	50
1	90	1.544561344029	50
1	90	1.551765096125	50
1	90	1.558953056336	50
1	90	1.565800765893	50
1	90	1.572887564529	50
1	90	1.580020502782	50
1	90	1.587309872622	50
1	90	1.594017434884	50
1	91	1.6	50
1	95	1.601281144101	50
1	95	1.608612705851	50
1	95	1.616234678456	50
1	95	1.623793979099	50
1	95	1.631011548169	50
1	95	1.638070465332	50
1	95	1.644713629303	50
1	95	1.6516183352	50
1	95	1.658771258984	50
1	95	1.665949350457	50
1	95	1.672797306482	50
1	95	1.679224821677	50
1	95	1.68649914062	50
1	95	1.693058660701	50
1	96	1.7	50
1	100	1.700797092774	50
1	100	1.708408949116	50
1	100	1.715593208616	50
1	100	1.72247521467	50
1	100	1.729360674967	50
1	100	1.736494846614	50
1	100	1.742902376279	50
1	106	1.759207570846	50
1	106	1.784210042219	50
1	110	1.8	50
1	114	1.802534049372	50
1	114	1.822824984728	50
1	114	1.840811136181	50
1	114	1.85847049136	50
1	114	1.875820862015	50
1	114	1.893128234027	50
1	115	1.9	50
1	119	1.910136451092	50
1	119	1.930357357452	50
1	119	1.94847496585	50
1	119	1.966279905442	50
1	119	1.98328627905	50
1	123	2	50
1	127	2.00197885522	50
1	127	2.023242197225	50
1	127	2.040803267158	50
1	127	2.056541149844	50
1	127	2.074124948289	50
1	127	2.092658424871	50
1	128	2.1	50
1	132	2.109679540871	50
1	135	2.129781278246	50
1	136	2.151459259901	50
1	136	2.178757914132	50
1	136	2.196906237164	50
1	137	2.2	50
1	141	2.213981409918	50
1	141	2.232735414039	50
1	141	2.252092640866	50
1	141	2.269549282888	50
1	141	2.286785398688	50
1	142	2.3	50
1	146	2.305893228117	50
1	146	2.325414468664	50
1	146	2.343079966507	50
1	146	2.360927291135	50
1	146	2.380521016426	50
1	146	2.397684032557	50
1	147	2.4	50
1	151	2.41653263501	50
1	151	2.435724007294	50
1	151	2.453813358124	50
1	151	2.471295800649	50
1	151	2.488304016397	50
1	152	2.5	50
1	156	2.507245376358	50
1	157	2.528181305848	50
1	157	2.549258521862	50
1	157	2.569292687307	50
1	157	2.587417666901	50
1	161	2.6	50
1	165	2.604551808893	50
1	165	2.621289647767	50
1	165	2.634630246515	50
1	165	2.64743750372	50
1	165	2.66046858106	50
1	165	2.671428281228	50
1	165	2.683732983607	50
1	165	2.695827177362	50
1	166	2.7	50
1	170	2.708802923687	50
1	170	2.722190533197	50
1	170	2.734238549107	50
1	170	2.745636737268	50
1	170	2.758602082832	50
1	170	2.770851454196	50
1	170	2.782753862125	50
1	170	2.794563080554	50
1	171	2.8	50
1	175	2.80737366586	50
1	175	2.821049578797	50
1	175	2.834908957308	50
1	175	2.847940034648	50
1	175	2.860908292746	50
1	175	2.874098706928	50
1	178	2.887538734027	50
1	179	2.9	50
1	183	2.904919328881	50
1	183	2.918605641688	50
1	183	2.931605517636	50
1	183	2.944366180537	50
1	186	2.956520954773	50
1	186	2.966439314381	50
1	186	2.973709685617	50
1	186	2.981144630321	50
1	186	2.988301748808	50
1	186	2.995910643841	50
1	187	3	50
1	191	3.004174134149	50
1	191	3.01268682927	50
1	191	3.020502737206	50
1	191	3.028197249982	50
1	191	3.036058557604	50
1	191	3.044286271025	50
1	191	3.050885268703	50
1	191	3.058272593399	50
1	194	3.065974508655	50
1	194	3.074205182856	50
1	194	3.081607311453	50
1	194	3.089446166228	50
1	194	3.096620556461	50
1	195	3.1	50
1	199	3.104368117871	50
1	199	3.111904472204	50
1	199	3.119770220997	50
1	199	3.126859239954	50
1	199	3.133806384758	50
1	199	3.141101182695	50
1	199	3.148661717261	50
1	199	3.156028562964	50
1	199	3.163416381124	50
1	199	3.170919178891	50
1	199	3.178364980318	50
1	199	3.185352343708	50
1	199	3.19301083313	50
1	200	3.2	50
1	204	3.20064810257	50
1	204	3.209283179777	50
1	204	3.216230571048	50
1	204	3.223426180735	50
1	204	3.230954639654	50
1	204	3.238161598998	50
1	204	3.245401621444	50
1	204	3.253509913559	50
2	0	0	0
2	0	0.1	0
2	6	0.2	0
2	11	0.3	0
2	16	0.4	0
2	21	0.5	0
2	26	0.540436798241	0
2	28	0.547717285212	0
2	28	0.55724999395	0
2	28	0.563718714129	0
2	28	0.570531633726	0
2	28	0.576853052184	0
2	28	0.583752082988	0
2	28	0.590769794639	0
2	28	0.597246657757	0
2	29	0.6	0
2	33	0.604636943234	0
2	33	0.611846616891	0
2	33	0.619455511924	0
2	33	0.626040445632	0
2	33	0.632642898083	0
2	33	0.639409184071	0
2	36	0.646404195878	0
2	36	0.655702256708	0
2	36	0.662349615382	0
2	36	0.669037932573	0
2	39	0.676941432106	0
2	39	0.686900503234	0
2	39	0.69432927991	0
2	40	0.7	0
2	44	0.701235466197	0
2	44	0.709473542348	0
2	44	0.716235140169	0
2	44	0.723542768682	0
2	44	0.730925405212	0
2	44	0.738094367348	0
2	44	0.744890015199	0
2	44	0.751376747584	0
2	44	0.75895208658	0
2	44	0.765118059849	0
2	44	0.772235947206	0
2	44	0.779320031	0
2	44	0.785866227041	0
2	44	0.793762818616	0
2	45	0.8	0
2	49	0.800824449563	0
2	49	0.80840941083	0
2	49	0.81574319343	0
2	49	0.822735984917	0
2	49	0.829657715565	0
2	49	0.836623858973	0
2	49	0.843383236474	0
2	49	0.851137460432	0
2	49	0.857820595464	0
2	49	0.864680642134	0
2	49	0.871815800708	0
2	49	0.879162413884	0
2	49	0.886138673555	0
2	49	0.892831431916	0
2	49	0.89963793649	0
2	50	0.9	0
2	54	0.907576719446	0
2	54	0.914789847346	0
2	54	0.922271919652	0
2	54	0.929426077359	0
2	54	0.936271072603	0
2	54	0.94332382121	0
2	54	0.950711885837	0
2	54	0.957743908454	0
2	54	0.964462573906	0
2	54	0.97146375427	0
2	54	0.978555240544	0
2	54	0.985940838383	0
2	54	0.993190483629	0
2	54	0.999979962923	0
2	55	1	0
2	59	1.00704307426	0
2	59	1.016170392537	0
2	59	1.02338179358	0
2	60	1.031499461499	0
2	60	1.040596924978	0
2	60	1.047818195288	0
2	60	1.055005415569	0
2	60	1.062317732248	0
2	61	1.069684577422	0
2	61	1.086733060982	0
2	62	1.1	0
2	66	1.102749191677	0
2	66	1.118838878043	0
2	66	1.133776362033	0
2	66	1.148019952228	0
2	66	1.162105115079	0
2	69	1.178361459712	0
2	69	1.195344103609	0
2	70	1.2	0
2	74	1.210707490712	0
2	75	1.221264232593	0
2	75	1.230889220566	0
2	75	1.23786967494	0
2	75	1.244898983244	0
2	75	1.252097060247	0
2	75	1.259579626016	0
2	75	1.266436957844	0
2	75	1.274637776719	0
2	75	1.28110847128	0
2	75	1.289266604252	0
2	75	1.295643044667	0
2	76	1.3	0
2	80	1.303338051436	0
2	80	1.31077299614	0
2	80	1.317743827714	0
2	80	1.324722801698	0
2	80	1.33255820223	0
2	80	1.339680777224	0
2	80	1.346475931612	0
2	80	1.353480072756	0
2	80	1.360657177302	0
2	80	1.367622333783	0
2	80	1.374600814303	0
2	80	1.382204774702	0
2	80	1.389458861119	0
2	80	1.396080312174	0
2	81	1.4	0
2	85	1.403309230902	0
2	85	1.410914425224	0
2	85	1.418172952811	0
2	85	1.424907163152	0
2	85	1.431811622053	0
2	85	1.439285304953	0
2	85	1.445876900681	0
2	85	1.452906209514	0
2	85	1.459699390048	0
2	85	1.466823198436	0
2	85	1.474019548582	0
2	85	1.480777939156	0
2	85	1.487561003427	0
2	85	1.494289044682	0
2	86	1.5	0
2	90	1.501827126401	0
2	90	1.509384946654	0
2	90	1.51679965936	0
2	90	1.523603202625	0
2	90	1.530732193172	0
2	90	1.538104219975	0
2	90	1.544561344029	0
2	90	1.551765096125	0
2	90	1.558953056336	0
2	90	1.565800765893	0
2	90	1.572887564529	0
2	90	1.580020502782	0
2	90	1.587309872622	0
2	90	1.594017434884	0
2	91	1.6	0
2	95	1.601281144101	0
2	95	1.608612705851	0
2	95	1.616234678456	0
2	95	1.623793979099	0
2	95	1.631011548169	0
2	95	1.638070465332	0
2	95	1.644713629303	0
2	95	1.6516183352	0
2	95	1.658771258984	0
2	95	1.665949350457	0
2	95	1.672797306482	0
2	95	1.679224821677	0
2	95	1.68649914062	0
2	95	1.693058660701	0
2	96	1.7	0
2	100	1.700797092774	0
2	100	1.708408949116	0
2	100	1.715593208616	0
2	100	1.72247521467	0
2	100	1.729360674967	0
2	100	1.736494846614	0
2	100	1.742902376279	0
2	106	1.759207570846	0
2	106	1.784210042219	0
2	110	1.8	0
2	114	1.802534049372	0
2	114	1.822824984728	0
2	114	1.840811136181	0
2	114	1.85847049136	0
2	114	1.875820862015	0
2	114	1.893128234027	0
2	115	1.9	0
2	119	1.910136451092	0
2	119	1.930357357452	0
2	119	1.94847496585	0
2	119	1.966279905442	0
2	119	1.98328627905	0
2	123	2	0
2	127	2.00197885522	0
2	127	2.023242197225	0
2	127	2.040803267158	0
2	127	2.056541149844	0
2	127	2.074124948289	0
2	127	2.092658424871	0
2	128	2.1	0
2	132	2.109679540871	0
2	135	2.129781278246	0
2	136	2.151459259901	0
2	136	2.178757914132	0
2	136	2.196906237164	0
2	137	2.2	0
2	141	2.213981409918	0
2	141	2.232735414039	0
2	141	2.252092640866	0
2	141	2.269549282888	0
2	141	2.286785398688	0
2	142	2.3	0
2	146	2.305893228117	0
2	146	2.325414468664	0
2	146	2.343079966507	0
2	146	2.360927291135	0
2	146	2.380521016426	0
2	146	2.397684032557	0
2	147	2.4	0
2	151	2.41653263501	0
2	151	2.435724007294	0
2	151	2.453813358124	0
2	151	2.471295800649	0
2	151	2.488304016397	0
2	152	2.5	0
2	156	2.507245376358	0
2	157	2.528181305848	0
2	157	2.549258521862	0
2	157	2.569292687307	0
2	157	2.587417666901	0
2	161	2.6	0
2	165	2.604551808893	0
2	165	2.621289647767	0
2	165	2.634630246515	0
2	165	2.64743750372	0
2	165	2.66046858106	0
2	165	2.671428281228	0
2	165	2.683732983607	0
2	165	2.695827177362	0
2	166	2.7	0
2	170	2.708802923687	0
2	170	2.722190533197	0
2	170	2.734238549107	0
2	170	2.745636737268	0
2	170	2.758602082832	0
2	170	2.770851454196	0
2	170	2.782753862125	0
2	170	2.794563080554	0
2	171	2.8	0
2	175	2.80737366586	0
2	175	2.821049578797	0
2	175	2.834908957308	0
2	175	2.847940034648	0
2	175	2.860908292746	0
2	175	2.874098706928	0
2	178	2.887538734027	0
2	179	2.9	0
2	183	2.904919328881	0
2	183	2.918605641688	0
2	183	2.931605517636	0
2	183	2.944366180537	0
2	186	2.956520954773	0
2	186	2.966439314381	0
2	186	2.973709685617	0
2	186	2.981144630321	0
2	186	2.988301748808	0
2	186	2.995910643841	0
2	187	3	0
2	191	3.004174134149	0
2	191	3.01268682927	0
2	191	3.020502737206	0
2	191	3.028197249982	0
2	191	3.036058557604	0
2	191	3.044286271025	0
2	191	3.050885268703	0
2	191	3.058272593399	0
2	194	3.065974508655	0
2	194	3.074205182856	0
2	194	3.081607311453	0
2	194	3.089446166228	0
2	194	3.096620556461	0
2	195	3.1	0
2	199	3.104368117871	0
2	199	3.111904472204	0
2	199	3.119770220997	0
2	199	3.126859239954	0
2	199	3.133806384758	0
2	199	3.141101182695	0
2	199	3.148661717261	0
2	199	3.156028562964	0
2	199	3.163416381124	0
2	199	3.170919178891	0
2	199	3.178364980318	0
2	199	3.185352343708	0
2	199	3.19301083313	0
2	200	3.2	0
2	204	3.20064810257	0
2	204	3.209283179777	0
2	204	3.216230571048	0
2	204	3.223426180735	0
2	204	3.230954639654	0
2	204	3.238161598998	0
2	204	3.245401621444	0
2	204	3.253509913559	0
3	0	0	100
3	0	0.1	100
3	6	0.2	100
3	11	0.3	100
3	16	0.4	100
3	21	0.5	100
3	26	0.540436798241	100
3	28	0.547717285212	100
3	28	0.55724999395	100
3	28	0.563718714129	100
3	28	0.570531633726	100
3	28	0.576853052184	100
3	28	0.583752082988	100
3	28	0.590769794639	100
3	28	0.597246657757	100
3	30	0.6	100
3	33	0.604636943234	100
3	33	0.611846616891	100
3	33	0.619455511924	100
3	33	0.626040445632	100
3	33	0.632642898083	100
3	33	0.639409184071	100
3	36	0.646404195878	100
3	36	0.655702256708	100
3	36	0.662349615382	100
3	36	0.669037932573	100
3	39	0.676941432106	100
3	39	0.686900503234	100
3	39	0.69432927991	100
3	41	0.7	100
3	44	0.701235466197	100
3	44	0.709473542348	100
3	44	0.716235140169	100
3	44	0.723542768682	100
3	44	0.730925405212	100
3	44	0.738094367348	100
3	44	0.744890015199	100
3	44	0.751376747584	100
3	44	0.75895208658	100
3	44	0.765118059849	100
3	44	0.772235947206	100
3	44	0.779320031	100
3	44	0.785866227041	100
3	44	0.793762818616	100
3	46	0.8	100
3	49	0.800824449563	100
3	49	0.80840941083	100
3	49	0.81574319343	100
3	49	0.822735984917	100
3	49	0.829657715565	100
3	49	0.836623858973	100
3	49	0.843383236474	100
3	49	0.851137460432	100
3	49	0.857820595464	100
3	49	0.864680642134	100
3	49	0.871815800708	100
3	49	0.879162413884	100
3	49	0.886138673555	100
3	49	0.892831431916	100
3	49	0.89963793649	100
3	51	0.9	100
3	54	0.907576719446	100
3	54	0.914789847346	100
3	54	0.922271919652	100
3	54	0.929426077359	100
3	54	0.936271072603	100
3	54	0.94332382121	100
3	54	0.950711885837	100
3	54	0.957743908454	100
3	54	0.964462573906	100
3	54	0.97146375427	100
3	54	0.978555240544	100
3	54	0.985940838383	100
3	54	0.993190483629	100
3	54	0.999979962923	100
3	56	1	100
3	59	1.00704307426	100
3	59	1.016170392537	100
3	59	1.02338179358	100
3	60	1.031499461499	100
3	60	1.040596924978	100
3	60	1.047818195288	100
3	60	1.055005415569	100
3	60	1.062317732248	100
3	61	1.069684577422	100
3	61	1.086733060982	100
3	63	1.1	100
3	66	1.102749191677	100
3	66	1.118838878043	100
3	66	1.133776362033	100
3	66	1.148019952228	100
3	66	1.162105115079	100
3	69	1.178361459712	100
3	69	1.195344103609	100
3	71	1.2	100
3	74	1.210707490712	100
3	75	1.221264232593	100
3	75	1.230889220566	100
3	75	1.23786967494	100
3	75	1.244898983244	100
3	75	1.252097060247	100
3	75	1.259579626016	100
3	75	1.266436957844	100
3	75	1.274637776719	100
3	75	1.28110847128	100
3	75	1.289266604252	100
3	75	1.295643044667	100
3	77	1.3	100
3	80	1.303338051436	100
3	80	1.31077299614	100
3	80	1.317743827714	100
3	80	1.324722801698	100
3	80	1.33255820223	100
3	80	1.339680777224	100
3	80	1.346475931612	100
3	80	1.353480072756	100
3	80	1.360657177302	100
3	80	1.367622333783	100
3	80	1.374600814303	100
3	80	1.382204774702	100
3	80	1.389458861119	100
3	80	1.396080312174	100
3	82	1.4	100
3	85	1.403309230902	100
3	85	1.410914425224	100
3	85	1.418172952811	100
3	85	1.424907163152	100
3	85	1.431811622053	100
3	85	1.439285304953	100
3	85	1.445876900681	100
3	85	1.452906209514	100
3	85	1.459699390048	100
3	85	1.466823198436	100
3	85	1.474019548582	100
3	85	1.480777939156	100
3	85	1.487561003427	100
3	85	1.494289044682	100
3	87	1.5	100
3	90	1.501827126401	100
3	90	1.509384946654	100
3	90	1.51679965936	100
3	90	1.523603202625	100
3	90	1.530732193172	100
3	90	1.538104219975	100
3	90	1.544561344029	100
3	90	1.551765096125	100
3	90	1.558953056336	100
3	90	1.565800765893	100
3	90	1.572887564529	100
3	90	1.580020502782	100
3	90	1.587309872622	100
3	90	1.594017434884	100
3	92	1.6	100
3	95	1.601281144101	100
3	95	1.608612705851	100
3	95	1.616234678456	100
3	95	1.623793979099	100
3	95	1.631011548169	100
3	95	1.638070465332	100
3	95	1.644713629303	100
3	95	1.6516183352	100
3	95	1.658771258984	100
3	95	1.665949350457	100
3	95	1.672797306482	100
3	95	1.679224821677	100
3	95	1.68649914062	100
3	95	1.693058660701	100
3	97	1.7	100
3	100	1.700797092774	100
3	100	1.708408949116	100
3	100	1.715593208616	100
3	100	1.72247521467	100
3	100	1.729360674967	100
3	100	1.736494846614	100
3	100	1.742902376279	100
3	106	1.759207570846	100
3	106	1.784210042219	100
3	111	1.8	100
3	114	1.802534049372	100
3	114	1.822824984728	100
3	114	1.840811136181	100
3	114	1.85847049136	100
3	114	1.875820862015	100
3	114	1.893128234027	100
3	116	1.9	100
3	119	1.910136451092	100
3	119	1.930357357452	100
3	119	1.94847496585	100
3	119	1.966279905442	100
3	119	1.98328627905	100
3	124	2	100
3	127	2.00197885522	100
3	127	2.023242197225	100
3	127	2.040803267158	100
3	127	2.056541149844	100
3	127	2.074124948289	100
3	127	2.092658424871	100
3	129	2.1	100
3	132	2.109679540871	100
3	135	2.129781278246	100
3	136	2.151459259901	100
3	136	2.178757914132	100
3	136	2.196906237164	100
3	138	2.2	100
3	141	2.213981409918	100
3	141	2.232735414039	100
3	141	2.252092640866	100
3	141	2.269549282888	100
3	141	2.286785398688	100
3	143	2.3	100
3	146	2.305893228117	100
3	146	2.325414468664	100
3	146	2.343079966507	100
3	146	2.360927291135	100
3	146	2.380521016426	100
3	146	2.397684032557	100
3	148	2.4	100
3	151	2.41653263501	100
3	151	2.435724007294	100
3	151	2.453813358124	100
3	151	2.471295800649	100
3	151	2.488304016397	100
3	153	2.5	100
3	156	2.507245376358	100
3	157	2.528181305848	100
3	157	2.549258521862	100
3	157	2.569292687307	100
3	157	2.587417666901	100
3	162	2.6	100
3	165	2.604551808893	100
3	165	2.621289647767	100
3	165	2.634630246515	100
3	165	2.64743750372	100
3	165	2.66046858106	100
3	165	2.671428281228	100
3	165	2.683732983607	100
3	165	2.695827177362	100
3	167	2.7	100
3	170	2.708802923687	100
3	170	2.722190533197	100
3	170	2.734238549107	100
3	170	2.745636737268	100
3	170	2.758602082832	100
3	170	2.770851454196	100
3	170	2.782753862125	100
3	170	2.794563080554	100
3	172	2.8	100
3	175	2.80737366586	100
3	175	2.821049578797	100
3	175	2.834908957308	100
3	175	2.847940034648	100
3	175	2.860908292746	100
3	175	2.874098706928	100
3	178	2.887538734027	100
3	180	2.9	100
3	183	2.904919328881	100
3	183	2.918605641688	100
3	183	2.931605517636	100
3	183	2.944366180537	100
3	186	2.956520954773	100
3	186	2.966439314381	100
3	186	2.973709685617	100
3	186	2.981144630321	100
3	186	2.988301748808	100
3	186	2.995910643841	100
3	188	3	100
3	191	3.004174134149	100
3	191	3.01268682927	100
3	191	3.020502737206	100
3	191	3.028197249982	100
3	191	3.036058557604	100
3	191	3.044286271025	100
3	191	3.050885268703	100
3	191	3.058272593399	100
3	194	3.065974508655	100
3	194	3.074205182856	100
3	194	3.081607311453	100
3	194	3.089446166228	100
3	194	3.096620556461	100
3	196	3.1	100
3	199	3.104368117871	100
3	199	3.111904472204	100
3	199	3.119770220997	100
3	199	3.126859239954	100
3	199	3.133806384758	100
3	199	3.141101182695	100
3	199	3.148661717261	100
3	199	3.156028562964	100
3	199	3.163416381124	100
3	199	3.170919178891	100
3	199	3.178364980318	100
3	199	3.185352343708	100
3	199	3.19301083313	100
3	201	3.2	100
3	204	3.20064810257	100
3	204	3.209283179777	100
3	204	3.216230571048	100
3	204	3.223426180735	100
3	204	3.230954639654	100
3	204	3.238161598998	100
3	204	3.245401621444	100
3	204	3.253509913559	100
4	0	0	100
4	0	0.1	100
4	6	0.2	100
4	11	0.3	100
4	16	0.4	100
4	21	0.5	100
4	26	0.540436798241	100
4	28	0.547717285212	100
4	28	0.55724999395	100
4	28	0.563718714129	100
4	28	0.570531633726	100
4	28	0.576853052184	100
4	28	0.583752082988	100
4	28	0.590769794639	100
4	28	0.597246657757	100
4	30	0.6	100
4	33	0.604636943234	100
4	33	0.611846616891	100
4	33	0.619455511924	100
4	33	0.626040445632	100
4	33	0.632642898083	100
4	33	0.639409184071	100
4	36	0.646404195878	100
4	36	0.655702256708	100
4	36	0.662349615382	100
4	36	0.669037932573	100
4	39	0.676941432106	100
4	39	0.686900503234	100
4	39	0.69432927991	100
4	41	0.7	100
4	44	0.701235466197	100
4	44	0.709473542348	100
4	44	0.716235140169	100
4	44	0.723542768682	100
4	44	0.730925405212	100
4	44	0.738094367348	100
4	44	0.744890015199	100
4	44	0.751376747584	100
4	44	0.75895208658	100
4	44	0.765118059849	100
4	44	0.772235947206	100
4	44	0.779320031	100
4	44	0.785866227041	100
4	44	0.793762818616	100
4	46	0.8	100
4	49	0.800824449563	100
4	49	0.80840941083	100
4	49	0.81574319343	100
4	49	0.822735984917	100
4	49	0.829657715565	100
4	49	0.836623858973	100
4	49	0.843383236474	100
4	49	0.851137460432	100
4	49	0.857820595464	100
4	49	0.864680642134	100
4	49	0.871815800708	100
4	49	0.879162413884	100
4	49	0.886138673555	100
4	49	0.892831431916	100
4	49	0.89963793649	100
4	51	0.9	100
4	54	0.907576719446	100
4	54	0.914789847346	100
4	54	0.922271919652	100
4	54	0.929426077359	100
4	54	0.936271072603	100
4	54	0.94332382121	100
4	54	0.950711885837	100
4	54	0.957743908454	100
4	54	0.964462573906	100
4	54	0.97146375427	100
4	54	0.978555240544	100
4	54	0.985940838383	100
4	54	0.993190483629	100
4	54	0.999979962923	100
4	56	1	100
4	59	1.00704307426	100
4	59	1.016170392537	100
4	59	1.02338179358	100
4	60	1.031499461499	100
4	60	1.040596924978	100
4	60	1.047818195288	100
4	60	1.055005415569	100
4	60	1.062317732248	100
4	61	1.069684577422	100
4	61	1.086733060982	100
4	63	1.1	100
4	66	1.102749191677	100
4	66	1.118838878043	100
4	66	1.133776362033	100
4	66	1.148019952228	100
4	66	1.162105115079	100
4	69	1.178361459712	100
4	69	1.195344103609	100
4	71	1.2	100
4	74	1.210707490712	100
4	75	1.221264232593	100
4	75	1.230889220566	100
4	75	1.23786967494	100
4	75	1.244898983244	100
4	75	1.252097060247	100
4	75	1.259579626016	100
4	75	1.266436957844	100
4	75	1.274637776719	100
4	75	1.28110847128	100
4	75	1.289266604252	100
4	75	1.295643044667	100
4	77	1.3	100
4	80	1.303338051436	100
4	80	1.31077299614	100
4	80	1.317743827714	100
4	80	1.324722801698	100
4	80	1.33255820223	100
4	80	1.339680777224	100
4	80	1.346475931612	100
4	80	1.353480072756	100
4	80	1.360657177302	100
4	80	1.367622333783	100
4	80	1.374600814303	100
4	80	1.382204774702	100
4	80	1.389458861119	100
4	80	1.396080312174	100
4	82	1.4	100
4	85	1.403309230902	100
4	85	1.410914425224	100
4	85	1.418172952811	100
4	85	1.424907163152	100
4	85	1.431811622053	100
4	85	1.439285304953	100
4	85	1.445876900681	100
4	85	1.452906209514	100
4	85	1.459699390048	100
4	85	1.466823198436	100
4	85	1.474019548582	100
4	85	1.480777939156	100
4	85	1.487561003427	100
4	85	1.494289044682	100
4	87	1.5	100
4	90	1.501827126401	100
4	90	1.509384946654	100
4	90	1.51679965936	100
4	90	1.523603202625	100
4	90	1.530732193172	100
4	90	1.538104219975	100
4	90	1.544561344029	100
4	90	1.551765096125	100
4	90	1.558953056336	100
4	90	1.565800765893	100
4	90	1.572887564529	100
4	90	1.580020502782	100
4	90	1.587309872622	100
4	90	1.594017434884	100
4	92	1.6	100
4	95	1.601281144101	100
4	95	1.608612705851	100
4	95	1.616234678456	100
4	95	1.623793979099	100
4	95	1.631011548169	100
4	95	1.638070465332	100
4	95	1.644713629303	100
4	95	1.6516183352	100
4	95	1.658771258984	100
4	95	1.665949350457	100
4	95	1.672797306482	100
4	95	1.679224821677	100
4	95	1.68649914062	100
4	95	1.693058660701	100
4	97	1.7	100
4	100	1.700797092774	100
4	100	1.708408949116	100
4	100	1.715593208616	100
4	100	1.72247521467	100
4	100	1.729360674967	100
4	100	1.736494846614	100
4	100	1.742902376279	100
4	106	1.759207570846	100
4	106	1.784210042219	100
4	111	1.8	100
4	114	1.802534049372	100
4	114	1.822824984728	100
4	114	1.840811136181	100
4	114	1.85847049136	100
4	114	1.875820862015	100
4	114	1.893128234027	100
4	116	1.9	100
4	119	1.910136451092	100
4	119	1.930357357452	100
4	119	1.94847496585	100
4	119	1.966279905442	100
4	119	1.98328627905	100
4	124	2	100
4	127	2.00197885522	100
4	127	2.023242197225	100
4	127	2.040803267158	100
4	127	2.056541149844	100
4	127	2.074124948289	100
4	127	2.092658424871	100
4	129	2.1	100
4	132	2.109679540871	100
4	135	2.129781278246	100
4	136	2.151459259901	100
4	136	2.178757914132	100
4	136	2.196906237164	100
4	138	2.2	100
4	141	2.213981409918	100
4	141	2.232735414039	100
4	141	2.252092640866	100
4	141	2.269549282888	100
4	141	2.286785398688	100
4	143	2.3	100
4	146	2.305893228117	100
4	146	2.325414468664	100
4	146	2.343079966507	100
4	146	2.360927291135	100
4	146	2.380521016426	100
4	146	2.397684032557	100
4	148	2.4	100
4	151	2.41653263501	100
4	151	2.435724007294	100
4	151	2.453813358124	100
4	151	2.471295800649	100
4	151	2.488304016397	100
4	153	2.5	100
4	156	2.507245376358	100
4	157	2.528181305848	100
4	157	2.549258521862	100
4	157	2.569292687307	100
4	157	2.587417666901	100
4	162	2.6	100
4	165	2.604551808893	100
4	165	2.621289647767	100
4	165	2.634630246515	100
4	165	2.64743750372	100
4	165	2.66046858106	100
4	165	2.671428281228	100
4	165	2.683732983607	100
4	165	2.695827177362	100
4	167	2.7	100
4	170	2.708802923687	100
4	170	2.722190533197	100
4	170	2.734238549107	100
4	170	2.745636737268	100
4	170	2.758602082832	100
4	170	2.770851454196	100
4	170	2.782753862125	100
4	170	2.794563080554	100
4	172	2.8	100
4	175	2.80737366586	100
4	175	2.821049578797	100
4	175	2.834908957308	100
4	175	2.847940034648	100
4	175	2.860908292746	100
4	175	2.874098706928	100
4	178	2.887538734027	100
4	180	2.9	100
4	183	2.904919328881	100
4	183	2.918605641688	100
4	183	2.931605517636	100
4	183	2.944366180537	100
4	186	2.956520954773	100
4	186	2.966439314381	100
4	186	2.973709685617	100
4	186	2.981144630321	100
4	186	2.988301748808	100
4	186	2.995910643841	100
4	188	3	100
4	191	3.004174134149	100
4	191	3.01268682927	100
4	191	3.020502737206	100
4	191	3.028197249982	100
4	191	3.036058557604	100
4	191	3.044286271025	100
4	191	3.050885268703	100
4	191	3.058272593399	100
4	194	3.065974508655	100
4	194	3.074205182856	100
4	194	3.081607311453	100
4	194	3.089446166228	100
4	194	3.096620556461	100
4	196	3.1	100
4	199	3.104368117871	100
4	199	3.111904472204	100
4	199	3.119770220997	100
4	199	3.126859239954	100
4	199	3.133806384758	100
4	199	3.141101182695	100
4	199	3.148661717261	100
4	199	3.156028562964	100
4	199	3.163416381124	100
4	199	3.170919178891	100
4	199	3.178364980318	100
4	199	3.185352343708	100
4	199	3.19301083313	100
4	201	3.2	100
4	204	3.20064810257	100
4	204	3.209283179777	100
4	204	3.216230571048	100
4	204	3.223426180735	100
4	204	3.230954639654	100
4	204	3.238161598998	100
4	204	3.245401621444	100
4	204	3.253509913559	100
5	0	0	0
5	0	0.1	0
5	6	0.2	0
5	11	0.3	0
5	16	0.4	0
5	21	0.5	0
5	26	0.540436798241	0
5	28	0.547717285212	0
5	28	0.55724999395	0
5	28	0.563718714129	0
5	28	0.570531633726	0
5	28	0.576853052184	0
5	28	0.583752082988	0
5	28	0.590769794639	0
5	28	0.597246657757	0
5	30	0.6	0
5	33	0.604636943234	0
5	33	0.611846616891	0
5	33	0.619455511924	0
5	33	0.626040445632	0
5	33	0.632642898083	0
5	33	0.639409184071	0
5	36	0.646404195878	0
5	36	0.655702256708	0
5	36	0.662349615382	0
5	36	0.669037932573	0
5	39	0.676941432106	0
5	39	0.686900503234	0
5	39	0.69432927991	0
5	41	0.7	0
5	44	0.701235466197	0
5	44	0.709473542348	0
5	44	0.716235140169	0
5	44	0.723542768682	0
5	44	0.730925405212	0
5	44	0.738094367348	0
5	44	0.744890015199	0
5	44	0.751376747584	0
5	44	0.75895208658	0
5	44	0.765118059849	0
5	44	0.772235947206	0
5	44	0.779320031	0
5	44	0.785866227041	0
5	44	0.793762818616	0
5	46	0.8	0
5	49	0.800824449563	0
5	49	0.80840941083	0
5	49	0.81574319343	0
5	49	0.822735984917	0
5	49	0.829657715565	0
5	49	0.836623858973	0
5	49	0.843383236474	0
5	49	0.851137460432	0
5	49	0.857820595464	0
5	49	0.864680642134	0
5	49	0.871815800708	0
5	49	0.879162413884	0
5	49	0.886138673555	0
5	49	0.892831431916	0
5	49	0.89963793649	0
5	51	0.9	0
5	54	0.907576719446	0
5	54	0.914789847346	0
5	54	0.922271919652	0
5	54	0.929426077359	0
5	54	0.936271072603	0
5	54	0.94332382121	0
5	54	0.950711885837	0
5	54	0.957743908454	0
5	54	0.964462573906	0
5	54	0.97146375427	0
5	54	0.978555240544	0
5	54	0.985940838383	0
5	54	0.993190483629	0
5	54	0.999979962923	0
5	56	1	0
5	59	1.00704307426	0
5	59	1.016170392537	0
5	59	1.02338179358	0
5	60	1.031499461499	0
5	60	1.040596924978	0
5	60	1.047818195288	0
5	60	1.055005415569	0
5	60	1.062317732248	0
5	61	1.069684577422	0
5	61	1.086733060982	0
5	63	1.1	0
5	66	1.102749191677	0
5	66	1.118838878043	0
5	66	1.133776362033	0
5	66	1.148019952228	0
5	66	1.162105115079	0
5	69	1.178361459712	0
5	69	1.195344103609	0
5	71	1.2	0
5	74	1.210707490712	0
5	75	1.221264232593	0
5	75	1.230889220566	0
5	75	1.23786967494	0
5	75	1.244898983244	0
5	75	1.252097060247	0
5	75	1.259579626016	0
5	75	1.266436957844	0
5	75	1.274637776719	0
5	75	1.28110847128	0
5	75	1.289266604252	0
5	75	1.295643044667	0
5	77	1.3	0
5	80	1.303338051436	0
5	80	1.31077299614	0
5	80	1.317743827714	0
5	80	1.324722801698	0
5	80	1.33255820223	0
5	80	1.339680777224	0
5	80	1.346475931612	0
5	80	1.353480072756	0
5	80	1.360657177302	0
5	80	1.367622333783	0
5	80	1.374600814303	0
5	80	1.382204774702	0
5	80	1.389458861119	0
5	80	1.396080312174	0
5	82	1.4	0
5	85	1.403309230902	0
5	85	1.410914425224	0
5	85	1.418172952811	0
5	85	1.424907163152	0
5	85	1.431811622053	0
5	85	1.439285304953	0
5	85	1.445876900681	0
5	85	1.452906209514	0
5	85	1.459699390048	0
5	85	1.466823198436	0
5	85	1.474019548582	0
5	85	1.480777939156	0
5	85	1.487561003427	0
5	85	1.494289044682	0
5	87	1.5	0
5	90	1.501827126401	0
5	90	1.509384946654	0
5	90	1.51679965936	0
5	90	1.523603202625	0
5	90	1.530732193172	0
5	90	1.538104219975	0
5	90	1.544561344029	0
5	90	1.551765096125	0
5	90	1.558953056336	0
5	90	1.565800765893	0
5	90	1.572887564529	0
5	90	1.580020502782	0
5	90	1.587309872622	0
5	90	1.594017434884	0
5	92	1.6	0
5	95	1.601281144101	0
5	95	1.608612705851	0
5	95	1.616234678456	0
5	95	1.623793979099	0
5	95	1.631011548169	0
5	95	1.638070465332	0
5	95	1.644713629303	0
5	95	1.6516183352	0
5	95	1.658771258984	0
5	95	1.665949350457	0
5	95	1.672797306482	0
5	95	1.679224821677	0
5	95	1.68649914062	0
5	95	1.693058660701	0
5	97	1.7	0
5	100	1.700797092774	0
5	100	1.708408949116	0
5	100	1.715593208616	0
5	100	1.72247521467	0
5	100	1.729360674967	0
5	100	1.736494846614	0
5	100	1.742902376279	0
5	106	1.759207570846	0
5	106	1.784210042219	0
5	111	1.8	0
5	114	1.802534049372	0
5	114	1.822824984728	0
5	114	1.840811136181	0
5	114	1.85847049136	0
5	114	1.875820862015	0
5	114	1.893128234027	0
5	116	1.9	0
5	119	1.910136451092	0
5	119	1.930357357452	0
5	119	1.94847496585	0
5	119	1.966279905442	0
5	119	1.98328627905	0
5	124	2	0
5	127	2.00197885522	0
5	127	2.023242197225	0
5	127	2.040803267158	0
5	127	2.056541149844	0
5	127	2.074124948289	0
5	127	2.092658424871	0
5	129	2.1	0
5	132	2.109679540871	0
5	135	2.129781278246	0
5	136	2.151459259901	0
5	136	2.178757914132	0
5	136	2.196906237164	0
5	138	2.2	0
5	141	2.213981409918	0
5	141	2.232735414039	0
5	141	2.252092640866	0
5	141	2.269549282888	0
5	141	2.286785398688	0
5	143	2.3	0
5	146	2.305893228117	0
5	146	2.325414468664	0
5	146	2.343079966507	0
5	146	2.360927291135	0
5	146	2.380521016426	0
5	146	2.397684032557	0
5	148	2.4	0
5	151	2.41653263501	0
5	151	2.435724007294	0
5	151	2.453813358124	0
5	151	2.471295800649	0
5	151	2.488304016397	0
5	153	2.5	0
5	156	2.507245376358	0
5	157	2.528181305848	0
5	157	2.549258521862	0
5	157	2.569292687307	0
5	157	2.587417666901	0
5	162	2.6	0
5	165	2.604551808893	0
5	165	2.621289647767	0
5	165	2.634630246515	0
5	165	2.64743750372	0
5	165	2.66046858106	0
5	165	2.671428281228	0
5	165	2.683732983607	0
5	165	2.695827177362	0
5	167	2.7	0
5	170	2.708802923687	0
5	170	2.722190533197	0
5	170	2.734238549107	0
5	170	2.745636737268	0
5	170	2.758602082832	0
5	170	2.770851454196	0
5	170	2.782753862125	0
5	170	2.794563080554	0
5	172	2.8	0
5	175	2.80737366586	0
5	175	2.821049578797	0
5	175	2.834908957308	0
5	175	2.847940034648	0
5	175	2.860908292746	0
5	175	2.874098706928	0
5	178	2.887538734027	0
5	180	2.9	0
5	183	2.904919328881	0
5	183	2.918605641688	0
5	183	2.931605517636	0
5	183	2.944366180537	0
5	186	2.956520954773	0
5	186	2.966439314381	0
5	186	2.973709685617	0
5	186	2.981144630321	0
5	186	2.988301748808	0
5	186	2.995910643841	0
5	188	3	0
5	191	3.004174134149	0
5	191	3.01268682927	0
5	191	3.020502737206	0
5	191	3.028197249982	0
5	191	3.036058557604	0
5	191	3.044286271025	0
5	191	3.050885268703	0
5	191	3.058272593399	0
5	194	3.065974508655	0
5	194	3.074205182856	0
5	194	3.081607311453	0
5	194	3.089446166228	0
5	194	3.096620556461	0
5	196	3.1	0
5	199	3.104368117871	0
5	199	3.111904472204	0
5	199	3.119770220997	0
5	199	3.126859239954	0
5	199	3.133806384758	0
5	199	3.141101182695	0
5	199	3.148661717261	0
5	199	3.156028562964	0
5	199	3.163416381124	0
5	199	3.170919178891	0
5	199	3.178364980318	0
5	199	3.185352343708	0
5	199	3.19301083313	0
5	201	3.2	0
5	204	3.20064810257	0
5	204	3.209283179777	0
5	204	3.216230571048	0
5	204	3.223426180735	0
5	204	3.230954639654	0
5	204	3.238161598998	0
5	204	3.245401621444	0
5	204	3.253509913559	0
6	0	0	300
6	0	0.1	300
6	6	0.2	300
6	11	0.3	300
6	16	0.4	300
6	21	0.5	300
6	26	0.540436798241	300
6	28	0.547717285212	300
6	28	0.55724999395	300
6	28	0.563718714129	300
6	28	0.570531633726	300
6	28	0.576853052184	300
6	28	0.583752082988	300
6	28	0.590769794639	300
6	28	0.597246657757	300
6	31	0.6	300
6	33	0.604636943234	300
6	33	0.611846616891	300
6	33	0.619455511924	300
6	33	0.626040445632	300
6	33	0.632642898083	300
6	33	0.639409184071	300
6	36	0.646404195878	300
6	36	0.655702256708	300
6	36	0.662349615382	300
6	36	0.669037932573	300
6	39	0.676941432106	300
6	39	0.686900503234	300
6	39	0.69432927991	300
6	42	0.7	300
6	44	0.701235466197	300
6	44	0.709473542348	300
6	44	0.716235140169	300
6	44	0.723542768682	300
6	44	0.730925405212	300
6	44	0.738094367348	300
6	44	0.744890015199	300
6	44	0.751376747584	300
6	44	0.75895208658	300
6	44	0.765118059849	300
6	44	0.772235947206	300
6	44	0.779320031	300
6	44	0.785866227041	300
6	44	0.793762818616	300
6	47	0.8	300
6	49	0.800824449563	300
6	49	0.80840941083	300
6	49	0.81574319343	300
6	49	0.822735984917	300
6	49	0.829657715565	300
6	49	0.836623858973	300
6	49	0.843383236474	300
6	49	0.851137460432	300
6	49	0.857820595464	300
6	49	0.864680642134	300
6	49	0.871815800708	300
6	49	0.879162413884	300
6	49	0.886138673555	300
6	49	0.892831431916	300
6	49	0.89963793649	300
6	52	0.9	300
6	54	0.907576719446	300
6	54	0.914789847346	300
6	54	0.922271919652	300
6	54	0.929426077359	300
6	54	0.936271072603	300
6	54	0.94332382121	300
6	54	0.950711885837	300
6	54	0.957743908454	300
6	54	0.964462573906	300
6	54	0.97146375427	300
6	54	0.978555240544	300
6	54	0.985940838383	300
6	54	0.993190483629	300
6	54	0.999979962923	300
6	57	1	300
6	59	1.00704307426	300
6	59	1.016170392537	300
6	59	1.02338179358	300
6	60	1.031499461499	300
6	60	1.040596924978	300
6	60	1.047818195288	300
6	60	1.055005415569	300
6	60	1.062317732248	300
6	61	1.069684577422	300
6	61	1.086733060982	300
6	64	1.1	300
6	66	1.102749191677	300
6	66	1.118838878043	300
6	66	1.133776362033	300
6	66	1.148019952228	300
6	66	1.162105115079	300
6	69	1.178361459712	300
6	69	1.195344103609	300
6	72	1.2	300
6	74	1.210707490712	300
6	75	1.221264232593	300
6	75	1.230889220566	300
6	75	1.23786967494	300
6	75	1.244898983244	300
6	75	1.252097060247	300
6	75	1.259579626016	300
6	75	1.266436957844	300
6	75	1.274637776719	300
6	75	1.28110847128	300
6	75	1.289266604252	300
6	75	1.295643044667	300
6	78	1.3	300
6	80	1.303338051436	300
6	80	1.31077299614	300
6	80	1.317743827714	300
6	80	1.324722801698	300
6	80	1.33255820223	300
6	80	1.339680777224	300
6	80	1.346475931612	300
6	80	1.353480072756	300
6	80	1.360657177302	300
6	80	1.367622333783	300
6	80	1.374600814303	300
6	80	1.382204774702	300
6	80	1.389458861119	300
6	80	1.396080312174	300
6	83	1.4	300
6	85	1.403309230902	300
6	85	1.410914425224	300
6	85	1.418172952811	300
6	85	1.424907163152	300
6	85	1.431811622053	300
6	85	1.439285304953	300
6	85	1.445876900681	300
6	85	1.452906209514	300
6	85	1.459699390048	300
6	85	1.466823198436	300
6	85	1.474019548582	300
6	85	1.480777939156	300
6	85	1.487561003427	300
6	85	1.494289044682	300
6	88	1.5	300
6	90	1.501827126401	300
6	90	1.509384946654	300
6	90	1.51679965936	300
6	90	1.523603202625	300
6	90	1.530732193172	300
6	90	1.538104219975	300
6	90	1.544561344029	300
6	90	1.551765096125	300
6	90	1.558953056336	300
6	90	1.565800765893	300
6	90	1.572887564529	300
6	90	1.580020502782	300
6	90	1.587309872622	300
6	90	1.594017434884	300
6	93	1.6	300
6	95	1.601281144101	300
6	95	1.608612705851	300
6	95	1.616234678456	300
6	95	1.623793979099	300
6	95	1.631011548169	300
6	95	1.638070465332	300
6	95	1.644713629303	300
6	95	1.6516183352	300
6	95	1.658771258984	300
6	95	1.665949350457	300
6	95	1.672797306482	300
6	95	1.679224821677	300
6	95	1.68649914062	300
6	95	1.693058660701	300
6	98	1.7	300
6	100	1.700797092774	300
6	100	1.708408949116	300
6	100	1.715593208616	300
6	100	1.72247521467	300
6	100	1.729360674967	300
6	100	1.736494846614	300
6	100	1.742902376279	300
6	106	1.759207570846	300
6	106	1.784210042219	300
6	112	1.8	300
6	114	1.802534049372	300
6	114	1.822824984728	300
6	114	1.840811136181	300
6	114	1.85847049136	300
6	114	1.875820862015	300
6	114	1.893128234027	300
6	117	1.9	300
6	119	1.910136451092	300
6	119	1.930357357452	300
6	119	1.94847496585	300
6	119	1.966279905442	300
6	119	1.98328627905	300
6	125	2	300
6	127	2.00197885522	300
6	127	2.023242197225	300
6	127	2.040803267158	300
6	127	2.056541149844	300
6	127	2.074124948289	300
6	127	2.092658424871	300
6	130	2.1	300
6	132	2.109679540871	300
6	135	2.129781278246	300
6	136	2.151459259901	300
6	136	2.178757914132	300
6	136	2.196906237164	300
6	139	2.2	300
6	141	2.213981409918	300
6	141	2.232735414039	300
6	141	2.252092640866	300
6	141	2.269549282888	300
6	141	2.286785398688	300
6	144	2.3	300
6	146	2.305893228117	300
6	146	2.325414468664	300
6	146	2.343079966507	300
6	146	2.360927291135	300
6	146	2.380521016426	300
6	146	2.397684032557	300
6	149	2.4	300
6	151	2.41653263501	300
6	151	2.435724007294	300
6	151	2.453813358124	300
6	151	2.471295800649	300
6	151	2.488304016397	300
6	154	2.5	300
6	156	2.507245376358	300
6	157	2.528181305848	300
6	157	2.549258521862	300
6	157	2.569292687307	300
6	157	2.587417666901	300
6	163	2.6	300
6	165	2.604551808893	300
6	165	2.621289647767	300
6	165	2.634630246515	300
6	165	2.64743750372	300
6	165	2.66046858106	300
6	165	2.671428281228	300
6	165	2.683732983607	300
6	165	2.695827177362	300
6	168	2.7	300
6	170	2.708802923687	300
6	170	2.722190533197	300
6	170	2.734238549107	300
6	170	2.745636737268	300
6	170	2.758602082832	300
6	170	2.770851454196	300
6	170	2.782753862125	300
6	170	2.794563080554	300
6	173	2.8	300
6	175	2.80737366586	300
6	175	2.821049578797	300
6	175	2.834908957308	300
6	175	2.847940034648	300
6	175	2.860908292746	300
6	175	2.874098706928	300
6	178	2.887538734027	300
6	181	2.9	300
6	183	2.904919328881	300
6	183	2.918605641688	300
6	183	2.931605517636	300
6	183	2.944366180537	300
6	186	2.956520954773	300
6	186	2.966439314381	300
6	186	2.973709685617	300
6	186	2.981144630321	300
6	186	2.988301748808	300
6	186	2.995910643841	300
6	189	3	300
6	191	3.004174134149	300
6	191	3.01268682927	300
6	191	3.020502737206	300
6	191	3.028197249982	300
6	191	3.036058557604	300
6	191	3.044286271025	300
6	191	3.050885268703	300
6	191	3.058272593399	300
6	194	3.065974508655	300
6	194	3.074205182856	300
6	194	3.081607311453	300
6	194	3.089446166228	300
6	194	3.096620556461	300
6	197	3.1	300
6	199	3.104368117871	300
6	199	3.111904472204	300
6	199	3.119770220997	300
6	199	3.126859239954	300
6	199	3.133806384758	300
6	199	3.141101182695	300
6	199	3.148661717261	300
6	199	3.156028562964	300
6	199	3.163416381124	300
6	199	3.170919178891	300
6	199	3.178364980318	300
6	199	3.185352343708	300
6	199	3.19301083313	300
6	202	3.2	300
6	204	3.20064810257	300
6	204	3.209283179777	300
6	204	3.216230571048	300
6	204	3.223426180735	300
6	204	3.230954639654	300
6	204	3.238161598998	300
6	204	3.245401621444	300
6	204	3.253509913559	300
7	0	0	400
7	0	0.1	400
7	6	0.2	400
7	11	0.3	400
7	16	0.4	400
7	21	0.5	400
7	26	0.540436798241	400
7	28	0.547717285212	400
7	28	0.55724999395	400
7	28	0.563718714129	400
7	28	0.570531633726	400
7	28	0.576853052184	400
7	28	0.583752082988	400
7	28	0.590769794639	400
7	28	0.597246657757	400
7	31	0.6	400
7	33	0.604636943234	400
7	33	0.611846616891	400
7	33	0.619455511924	400
7	33	0.626040445632	400
7	33	0.632642898083	400
7	33	0.639409184071	400
7	36	0.646404195878	400
7	36	0.655702256708	400
7	36	0.662349615382	400
7	36	0.669037932573	400
7	39	0.676941432106	400
7	39	0.686900503234	400
7	39	0.69432927991	400
7	42	0.7	400
7	44	0.701235466197	400
7	44	0.709473542348	400
7	44	0.716235140169	400
7	44	0.723542768682	400
7	44	0.730925405212	400
7	44	0.738094367348	400
7	44	0.744890015199	400
7	44	0.751376747584	400
7	44	0.75895208658	400
7	44	0.765118059849	400
7	44	0.772235947206	400
7	44	0.779320031	400
7	44	0.785866227041	400
7	44	0.793762818616	400
7	47	0.8	400
7	49	0.800824449563	400
7	49	0.80840941083	400
7	49	0.81574319343	400
7	49	0.822735984917	400
7	49	0.829657715565	400
7	49	0.836623858973	400
7	49	0.843383236474	400
7	49	0.851137460432	400
7	49	0.857820595464	400
7	49	0.864680642134	400
7	49	0.871815800708	400
7	49	0.879162413884	400
7	49	0.886138673555	400
7	49	0.892831431916	400
7	49	0.89963793649	400
7	52	0.9	400
7	54	0.907576719446	400
7	54	0.914789847346	400
7	54	0.922271919652	400
7	54	0.929426077359	400
7	54	0.936271072603	400
7	54	0.94332382121	400
7	54	0.950711885837	400
7	54	0.957743908454	400
7	54	0.964462573906	400
7	54	0.97146375427	400
7	54	0.978555240544	400
7	54	0.985940838383	400
7	54	0.993190483629	400
7	54	0.999979962923	400
7	57	1	400
7	59	1.00704307426	400
7	59	1.016170392537	400
7	59	1.02338179358	400
7	60	1.031499461499	400
7	60	1.040596924978	400
7	60	1.047818195288	400
7	60	1.055005415569	400
7	60	1.062317732248	400
7	61	1.069684577422	400
7	61	1.086733060982	400
7	64	1.1	400
7	66	1.102749191677	400
7	66	1.118838878043	400
7	66	1.133776362033	400
7	66	1.148019952228	400
7	66	1.162105115079	400
7	69	1.178361459712	400
7	69	1.195344103609	400
7	72	1.2	400
7	74	1.210707490712	400
7	75	1.221264232593	400
7	75	1.230889220566	400
7	75	1.23786967494	400
7	75	1.244898983244	400
7	75	1.252097060247	400
7	75	1.259579626016	400
7	75	1.266436957844	400
7	75	1.274637776719	400
7	75	1.28110847128	400
7	75	1.289266604252	400
7	75	1.295643044667	400
7	78	1.3	400
7	80	1.303338051436	400
7	80	1.31077299614	400
7	80	1.317743827714	400
7	80	1.324722801698	400
7	80	1.33255820223	400
7	80	1.339680777224	400
7	80	1.346475931612	400
7	80	1.353480072756	400
7	80	1.360657177302	400
7	80	1.367622333783	400
7	80	1.374600814303	400
7	80	1.382204774702	400
7	80	1.389458861119	400
7	80	1.396080312174	400
7	83	1.4	400
7	85	1.403309230902	400
7	85	1.410914425224	400
7	85	1.418172952811	400
7	85	1.424907163152	400
7	85	1.431811622053	400
7	85	1.439285304953	400
7	85	1.445876900681	400
7	85	1.452906209514	400
7	85	1.459699390048	400
7	85	1.466823198436	400
7	85	1.474019548582	400
7	85	1.480777939156	400
7	85	1.487561003427	400
7	85	1.494289044682	400
7	88	1.5	400
7	90	1.501827126401	400
7	90	1.509384946654	400
7	90	1.51679965936	400
7	90	1.523603202625	400
7	90	1.530732193172	400
7	90	1.538104219975	400
7	90	1.544561344029	400
7	90	1.551765096125	400
7	90	1.558953056336	400
7	90	1.565800765893	400
7	90	1.572887564529	400
7	90	1.580020502782	400
7	90	1.587309872622	400
7	90	1.594017434884	400
7	93	1.6	400
7	95	1.601281144101	400
7	95	1.608612705851	400
7	95	1.616234678456	400
7	95	1.623793979099	400
7	95	1.631011548169	400
7	95	1.638070465332	400
7	95	1.644713629303	400
7	95	1.6516183352	400
7	95	1.658771258984	400
7	95	1.665949350457	400
7	95	1.672797306482	400
7	95	1.679224821677	400
7	95	1.68649914062	400
7	95	1.693058660701	400
7	98	1.7	400
7	100	1.700797092774	400
7	100	1.708408949116	400
7	100	1.715593208616	400
7	100	1.72247521467	400
7	100	1.729360674967	400
7	100	1.736494846614	400
7	100	1.742902376279	400
7	106	1.759207570846	400
7	106	1.784210042219	400
7	112	1.8	400
7	114	1.802534049372	400
7	114	1.822824984728	400
7	114	1.840811136181	400
7	114	1.85847049136	400
7	114	1.875820862015	400
7	114	1.893128234027	400
7	117	1.9	400
7	119	1.910136451092	400
7	119	1.930357357452	400
7	119	1.94847496585	400
7	119	1.966279905442	400
7	119	1.98328627905	400
7	125	2	400
7	127	2.00197885522	400
7	127	2.023242197225	400
7	127	2.040803267158	400
7	127	2.056541149844	400
7	127	2.074124948289	400
7	127	2.092658424871	400
7	130	2.1	400
7	132	2.109679540871	400
7	135	2.129781278246	400
7	136	2.151459259901	400
7	136	2.178757914132	400
7	136	2.196906237164	400
7	139	2.2	400
7	141	2.213981409918	400
7	141	2.232735414039	400
7	141	2.252092640866	400
7	141	2.269549282888	400
7	141	2.286785398688	400
7	144	2.3	400
7	146	2.305893228117	400
7	146	2.325414468664	400
7	146	2.343079966507	400
7	146	2.360927291135	400
7	146	2.380521016426	400
7	146	2.397684032557	400
7	149	2.4	400
7	151	2.41653263501	400
7	151	2.435724007294	400
7	151	2.453813358124	400
7	151	2.471295800649	400
7	151	2.488304016397	400
7	154	2.5	400
7	156	2.507245376358	400
7	157	2.528181305848	400
7	157	2.549258521862	400
7	157	2.569292687307	400
7	157	2.587417666901	400
7	163	2.6	400
7	165	2.604551808893	400
7	165	2.621289647767	400
7	165	2.634630246515	400
7	165	2.64743750372	400
7	165	2.66046858106	400
7	165	2.671428281228	400
7	165	2.683732983607	400
7	165	2.695827177362	400
7	168	2.7	400
7	170	2.708802923687	400
7	170	2.722190533197	400
7	170	2.734238549107	400
7	170	2.745636737268	400
7	170	2.758602082832	400
7	170	2.770851454196	400
7	170	2.782753862125	400
7	170	2.794563080554	400
7	173	2.8	400
7	175	2.80737366586	400
7	175	2.821049578797	400
7	175	2.834908957308	400
7	175	2.847940034648	400
7	175	2.860908292746	400
7	175	2.874098706928	400
7	178	2.887538734027	400
7	181	2.9	400
7	183	2.904919328881	400
7	183	2.918605641688	400
7	183	2.931605517636	400
7	183	2.944366180537	400
7	186	2.956520954773	400
7	186	2.966439314381	400
7	186	2.973709685617	400
7	186	2.981144630321	400
7	186	2.988301748808	400
7	186	2.995910643841	400
7	189	3	400
7	191	3.004174134149	400
7	191	3.01268682927	400
7	191	3.020502737206	400
7	191	3.028197249982	400
7	191	3.036058557604	400
7	191	3.044286271025	400
7	191	3.050885268703	400
7	191	3.058272593399	400
7	194	3.065974508655	400
7	194	3.074205182856	400
7	194	3.081607311453	400
7	194	3.089446166228	400
7	194	3.096620556461	400
7	197	3.1	400
7	199	3.104368117871	400
7	199	3.111904472204	400
7	199	3.119770220997	400
7	199	3.126859239954	400
7	199	3.133806384758	400
7	199	3.141101182695	400
7	199	3.148661717261	400
7	199	3.156028562964	400
7	199	3.163416381124	400
7	199	3.170919178891	400
7	199	3.178364980318	400
7	199	3.185352343708	400
7	199	3.19301083313	400
7	202	3.2	400
7	204	3.20064810257	400
7	204	3.209283179777	400
7	204	3.216230571048	400
7	204	3.223426180735	400
7	204	3.230954639654	400
7	204	3.238161598998	400
7	204	3.245401621444	400
7	204	3.253509913559	400
8	0	0	0
8	0	0.1	0
8	6	0.2	0
8	11	0.3	0
8	16	0.4	0
8	21	0.5	0
8	26	0.540436798241	0
8	28	0.547717285212	0
8	28	0.55724999395	0
8	28	0.563718714129	0
8	28	0.570531633726	0
8	28	0.576853052184	0
8	28	0.583752082988	0
8	28	0.590769794639	0
8	28	0.597246657757	0
8	31	0.6	0
8	33	0.604636943234	0
8	33	0.611846616891	0
8	33	0.619455511924	0
8	33	0.626040445632	0
8	33	0.632642898083	0
8	33	0.639409184071	0
8	36	0.646404195878	0
8	36	0.655702256708	0
8	36	0.662349615382	0
8	36	0.669037932573	0
8	39	0.676941432106	0
8	39	0.686900503234	0
8	39	0.69432927991	0
8	42	0.7	0
8	44	0.701235466197	0
8	44	0.709473542348	0
8	44	0.716235140169	0
8	44	0.723542768682	0
8	44	0.730925405212	0
8	44	0.738094367348	0
8	44	0.744890015199	0
8	44	0.751376747584	0
8	44	0.75895208658	0
8	44	0.765118059849	0
8	44	0.772235947206	0
8	44	0.779320031	0
8	44	0.785866227041	0
8	44	0.793762818616	0
8	47	0.8	0
8	49	0.800824449563	0
8	49	0.80840941083	0
8	49	0.81574319343	0
8	49	0.822735984917	0
8	49	0.829657715565	0
8	49	0.836623858973	0
8	49	0.843383236474	0
8	49	0.851137460432	0
8	49	0.857820595464	0
8	49	0.864680642134	0
8	49	0.871815800708	0
8	49	0.879162413884	0
8	49	0.886138673555	0
8	49	0.892831431916	0
8	49	0.89963793649	0
8	52	0.9	0
8	54	0.907576719446	0
8	54	0.914789847346	0
8	54	0.922271919652	0
8	54	0.929426077359	0
8	54	0.936271072603	0
8	54	0.94332382121	0
8	54	0.950711885837	0
8	54	0.957743908454	0
8	54	0.964462573906	0
8	54	0.97146375427	0
8	54	0.978555240544	0
8	54	0.985940838383	0
8	54	0.993190483629	0
8	54	0.999979962923	0
8	57	1	0
8	59	1.00704307426	0
8	59	1.016170392537	0
8	59	1.02338179358	0
8	60	1.031499461499	0
8	60	1.040596924978	0
8	60	1.047818195288	0
8	60	1.055005415569	0
8	60	1.062317732248	0
8	61	1.069684577422	0
8	61	1.086733060982	0
8	64	1.1	0
8	66	1.102749191677	0
8	66	1.118838878043	0
8	66	1.133776362033	0
8	66	1.148019952228	0
8	66	1.162105115079	0
8	69	1.178361459712	0
8	69	1.195344103609	0
8	72	1.2	0
8	74	1.210707490712	0
8	75	1.221264232593	0
8	75	1.230889220566	0
8	75	1.23786967494	0
8	75	1.244898983244	0
8	75	1.252097060247	0
8	75	1.259579626016	0
8	75	1.266436957844	0
8	75	1.274637776719	0
8	75	1.28110847128	0
8	75	1.289266604252	0
8	75	1.295643044667	0
8	78	1.3	0
8	80	1.303338051436	0
8	80	1.31077299614	0
8	80	1.317743827714	0
8	80	1.324722801698	0
8	80	1.33255820223	0
8	80	1.339680777224	0
8	80	1.346475931612	0
8	80	1.353480072756	0
8	80	1.360657177302	0
8	80	1.367622333783	0
8	80	1.374600814303	0
8	80	1.382204774702	0
8	80	1.389458861119	0
8	80	1.396080312174	0
8	83	1.4	0
8	85	1.403309230902	0
8	85	1.410914425224	0
8	85	1.418172952811	0
8	85	1.424907163152	0
8	85	1.431811622053	0
8	85	1.439285304953	0
8	85	1.445876900681	0
8	85	1.452906209514	0
8	85	1.459699390048	0
8	85	1.466823198436	0
8	85	1.474019548582	0
8	85	1.480777939156	0
8	85	1.487561003427	0
8	85	1.494289044682	0
8	88	1.5	0
8	90	1.501827126401	0
8	90	1.509384946654	0
8	90	1.51679965936	0
8	90	1.523603202625	0
8	90	1.530732193172	0
8	90	1.538104219975	0
8	90	1.544561344029	0
8	90	1.551765096125	0
8	90	1.558953056336	0
8	90	1.565800765893	0
8	90	1.572887564529	0
8	90	1.580020502782	0
8	90	1.587309872622	0
8	90	1.594017434884	0
8	93	1.6	0
8	95	1.601281144101	0
8	95	1.608612705851	0
8	95	1.616234678456	0
8	95	1.623793979099	0
8	95	1.631011548169	0
8	95	1.638070465332	0
8	95	1.644713629303	0
8	95	1.6516183352	0
8	95	1.658771258984	0
8	95	1.665949350457	0
8	95	1.672797306482	0
8	95	1.679224821677	0
8	95	1.68649914062	0
8	95	1.693058660701	0
8	98	1.7	0
8	100	1.700797092774	0
8	100	1.708408949116	0
8	100	1.715593208616	0
8	100	1.72247521467	0
8	100	1.729360674967	0
8	100	1.736494846614	0
8	100	1.742902376279	0
8	106	1.759207570846	0
8	106	1.784210042219	0
8	112	1.8	0
8	114	1.802534049372	0
8	114	1.822824984728	0
8	114	1.840811136181	0
8	114	1.85847049136	0
8	114	1.875820862015	0
8	114	1.893128234027	0
8	117	1.9	0
8	119	1.910136451092	0
8	119	1.930357357452	0
8	119	1.94847496585	0
8	119	1.966279905442	0
8	119	1.98328627905	0
8	125	2	0
8	127	2.00197885522	0
8	127	2.023242197225	0
8	127	2.040803267158	0
8	127	2.056541149844	0
8	127	2.074124948289	0
8	127	2.092658424871	0
8	130	2.1	0
8	132	2.109679540871	0
8	135	2.129781278246	0
8	136	2.151459259901	0
8	136	2.178757914132	0
8	136	2.196906237164	0
8	139	2.2	0
8	141	2.213981409918	0
8	141	2.232735414039	0
8	141	2.252092640866	0
8	141	2.269549282888	0
8	141	2.286785398688	0
8	144	2.3	0
8	146	2.305893228117	0
8	146	2.325414468664	0
8	146	2.343079966507	0
8	146	2.360927291135	0
8	146	2.380521016426	0
8	146	2.397684032557	0
8	149	2.4	0
8	151	2.41653263501	0
8	151	2.435724007294	0
8	151	2.453813358124	0
8	151	2.471295800649	0
8	151	2.488304016397	0
8	154	2.5	0
8	156	2.507245376358	0
8	157	2.528181305848	0
8	157	2.549258521862	0
8	157	2.569292687307	0
8	157	2.587417666901	0
8	163	2.6	0
8	165	2.604551808893	0
8	165	2.621289647767	0
8	165	2.634630246515	0
8	165	2.64743750372	0
8	165	2.66046858106	0
8	165	2.671428281228	0
8	165	2.683732983607	0
8	165	2.695827177362	0
8	168	2.7	0
8	170	2.708802923687	0
8	170	2.722190533197	0
8	170	2.734238549107	0
8	170	2.745636737268	0
8	170	2.758602082832	0
8	170	2.770851454196	0
8	170	2.782753862125	0
8	170	2.794563080554	0
8	173	2.8	0
8	175	2.80737366586	0
8	175	2.821049578797	0
8	175	2.834908957308	0
8	175	2.847940034648	0
8	175	2.860908292746	0
8	175	2.874098706928	0
8	178	2.887538734027	0
8	181	2.9	0
8	183	2.904919328881	0
8	183	2.918605641688	0
8	183	2.931605517636	0
8	183	2.944366180537	0
8	186	2.956520954773	0
8	186	2.966439314381	0
8	186	2.973709685617	0
8	186	2.981144630321	0
8	186	2.988301748808	0
8	186	2.995910643841	0
8	189	3	0
8	191	3.004174134149	0
8	191	3.01268682927	0
8	191	3.020502737206	0
8	191	3.028197249982	0
8	191	3.036058557604	0
8	191	3.044286271025	0
8	191	3.050885268703	0
8	191	3.058272593399	0
8	194	3.065974508655	0
8	194	3.074205182856	0
8	194	3.081607311453	0
8	194	3.089446166228	0
8	194	3.096620556461	0
8	197	3.1	0
8	199	3.104368117871	0
8	199	3.111904472204	0
8	199	3.119770220997	0
8	199	3.126859239954	0
8	199	3.133806384758	0
8	199	3.141101182695	0
8	199	3.148661717261	0
8	199	3.156028562964	0
8	199	3.163416381124	0
8	199	3.170919178891	0
8	199	3.178364980318	0
8	199	3.185352343708	0
8	199	3.19301083313	0
8	202	3.2	0
8	204	3.20064810257	0
8	204	3.209283179777	0
8	204	3.216230571048	0
8	204	3.223426180735	0
8	204	3.230954639654	0
8	204	3.238161598998	0
8	204	3.245401621444	0
8	204	3.253509913559	0
9	0	0	400
9	0	0.1	400
9	6	0.2	400
9	11	0.3	400
9	16	0.4	400
9	21	0.5	400
9	26	0.540436798241	400
9	28	0.547717285212	400
9	28	0.55724999395	400
9	28	0.563718714129	400
9	28	0.570531633726	400
9	28	0.576853052184	400
9	28	0.583752082988	400
9	28	0.590769794639	400
9	28	0.597246657757	400
9	32	0.6	400
9	33	0.604636943234	400
9	33	0.611846616891	400
9	33	0.619455511924	400
9	33	0.626040445632	400
9	33	0.632642898083	400
9	33	0.639409184071	400
9	36	0.646404195878	400
9	36	0.655702256708	400
9	36	0.662349615382	400
9	36	0.669037932573	400
9	39	0.676941432106	400
9	39	0.686900503234	400
9	39	0.69432927991	400
9	43	0.7	400
9	44	0.701235466197	400
9	44	0.709473542348	400
9	44	0.716235140169	400
9	44	0.723542768682	400
9	44	0.730925405212	400
9	44	0.738094367348	400
9	44	0.744890015199	400
9	44	0.751376747584	400
9	44	0.75895208658	400
9	44	0.765118059849	400
9	44	0.772235947206	400
9	44	0.779320031	400
9	44	0.785866227041	400
9	44	0.793762818616	400
9	48	0.8	400
9	49	0.800824449563	400
9	49	0.80840941083	400
9	49	0.81574319343	400
9	49	0.822735984917	400
9	49	0.829657715565	400
9	49	0.836623858973	400
9	49	0.843383236474	400
9	49	0.851137460432	400
9	49	0.857820595464	400
9	49	0.864680642134	400
9	49	0.871815800708	400
9	49	0.879162413884	400
9	49	0.886138673555	400
9	49	0.892831431916	400
9	49	0.89963793649	400
9	53	0.9	400
9	54	0.907576719446	400
9	54	0.914789847346	400
9	54	0.922271919652	400
9	54	0.929426077359	400
9	54	0.936271072603	400
9	54	0.94332382121	400
9	54	0.950711885837	400
9	54	0.957743908454	400
9	54	0.964462573906	400
9	54	0.97146375427	400
9	54	0.978555240544	400
9	54	0.985940838383	400
9	54	0.993190483629	400
9	54	0.999979962923	400
9	58	1	400
9	59	1.00704307426	400
9	59	1.016170392537	400
9	59	1.02338179358	400
9	60	1.031499461499	400
9	60	1.040596924978	400
9	60	1.047818195288	400
9	60	1.055005415569	400
9	60	1.062317732248	400
9	61	1.069684577422	400
9	61	1.086733060982	400
9	65	1.1	400
9	66	1.102749191677	400
9	66	1.118838878043	400
9	66	1.133776362033	400
9	66	1.148019952228	400
9	66	1.162105115079	400
9	69	1.178361459712	400
9	69	1.195344103609	400
9	73	1.2	400
9	74	1.210707490712	400
9	75	1.221264232593	400
9	75	1.230889220566	400
9	75	1.23786967494	400
9	75	1.244898983244	400
9	75	1.252097060247	400
9	75	1.259579626016	400
9	75	1.266436957844	400
9	75	1.274637776719	400
9	75	1.28110847128	400
9	75	1.289266604252	400
9	75	1.295643044667	400
9	79	1.3	400
9	80	1.303338051436	400
9	80	1.31077299614	400
9	80	1.317743827714	400
9	80	1.324722801698	400
9	80	1.33255820223	400
9	80	1.339680777224	400
9	80	1.346475931612	400
9	80	1.353480072756	400
9	80	1.360657177302	400
9	80	1.367622333783	400
9	80	1.374600814303	400
9	80	1.382204774702	400
9	80	1.389458861119	400
9	80	1.396080312174	400
9	84	1.4	400
9	85	1.403309230902	400
9	85	1.410914425224	400
9	85	1.418172952811	400
9	85	1.424907163152	400
9	85	1.431811622053	400
9	85	1.439285304953	400
9	85	1.445876900681	400
9	85	1.452906209514	400
9	85	1.459699390048	400
9	85	1.466823198436	400
9	85	1.474019548582	400
9	85	1.480777939156	400
9	85	1.487561003427	400
9	85	1.494289044682	400
9	89	1.5	400
9	90	1.501827126401	400
9	90	1.509384946654	400
9	90	1.51679965936	400
9	90	1.523603202625	400
9	90	1.530732193172	400
9	90	1.538104219975	400
9	90	1.544561344029	400
9	90	1.551765096125	400
9	90	1.558953056336	400
9	90	1.565800765893	400
9	90	1.572887564529	400
9	90	1.580020502782	400
9	90	1.587309872622	400
9	90	1.594017434884	400
9	94	1.6	400
9	95	1.601281144101	400
9	95	1.608612705851	400
9	95	1.616234678456	400
9	95	1.623793979099	400
9	95	1.631011548169	400
9	95	1.638070465332	400
9	95	1.644713629303	400
9	95	1.6516183352	400
9	95	1.658771258984	400
9	95	1.665949350457	400
9	95	1.672797306482	400
9	95	1.679224821677	400
9	95	1.68649914062	400
9	95	1.693058660701	400
9	99	1.7	400
9	100	1.700797092774	400
9	100	1.708408949116	400
9	100	1.715593208616	400
9	100	1.72247521467	400
9	100	1.729360674967	400
9	100	1.736494846614	400
9	100	1.742902376279	400
9	106	1.759207570846	400
9	106	1.784210042219	400
9	113	1.8	400
9	114	1.802534049372	400
9	114	1.822824984728	400
9	114	1.840811136181	400
9	114	1.85847049136	400
9	114	1.875820862015	400
9	114	1.893128234027	400
9	118	1.9	400
9	119	1.910136451092	400
9	119	1.930357357452	400
9	119	1.94847496585	400
9	119	1.966279905442	400
9	119	1.98328627905	400
9	126	2	400
9	127	2.00197885522	400
9	127	2.023242197225	400
9	127	2.040803267158	400
9	127	2.056541149844	400
9	127	2.074124948289	400
9	127	2.092658424871	400
9	131	2.1	400
9	132	2.109679540871	400
9	135	2.129781278246	400
9	136	2.151459259901	400
9	136	2.178757914132	400
9	136	2.196906237164	400
9	140	2.2	400
9	141	2.213981409918	400
9	141	2.232735414039	400
9	141	2.252092640866	400
9	141	2.269549282888	400
9	141	2.286785398688	400
9	145	2.3	400
9	146	2.305893228117	400
9	146	2.325414468664	400
9	146	2.343079966507	400
9	146	2.360927291135	400
9	146	2.380521016426	400
9	146	2.397684032557	400
9	150	2.4	400
9	151	2.41653263501	400
9	151	2.435724007294	400
9	151	2.453813358124	400
9	151	2.471295800649	400
9	151	2.488304016397	400
9	155	2.5	400
9	156	2.507245376358	400
9	157	2.528181305848	400
9	157	2.549258521862	400
9	157	2.569292687307	400
9	157	2.587417666901	400
9	164	2.6	400
9	165	2.604551808893	400
9	165	2.621289647767	400
9	165	2.634630246515	400
9	165	2.64743750372	400
9	165	2.66046858106	400
9	165	2.671428281228	400
9	165	2.683732983607	400
9	165	2.695827177362	400
9	169	2.7	400
9	170	2.708802923687	400
9	170	2.722190533197	400
9	170	2.734238549107	400
9	170	2.745636737268	400
9	170	2.758602082832	400
9	170	2.770851454196	400
9	170	2.782753862125	400
9	170	2.794563080554	400
9	174	2.8	400
9	175	2.80737366586	400
9	175	2.821049578797	400
9	175	2.834908957308	400
9	175	2.847940034648	400
9	175	2.860908292746	400
9	175	2.874098706928	400
9	178	2.887538734027	400
9	182	2.9	400
9	183	2.904919328881	400
9	183	2.918605641688	400
9	183	2.931605517636	400
9	183	2.944366180537	400
9	186	2.956520954773	400
9	186	2.966439314381	400
9	186	2.973709685617	400
9	186	2.981144630321	400
9	186	2.988301748808	400
9	186	2.995910643841	400
9	190	3	400
9	191	3.004174134149	400
9	191	3.01268682927	400
9	191	3.020502737206	400
9	191	3.028197249982	400
9	191	3.036058557604	400
9	191	3.044286271025	400
9	191	3.050885268703	400
9	191	3.058272593399	400
9	194	3.065974508655	400
9	194	3.074205182856	400
9	194	3.081607311453	400
9	194	3.089446166228	400
9	194	3.096620556461	400
9	198	3.1	400
9	199	3.104368117871	400
9	199	3.111904472204	400
9	199	3.119770220997	400
9	199	3.126859239954	400
9	199	3.133806384758	400
9	199	3.141101182695	400
9	199	3.148661717261	400
9	199	3.156028562964	400
9	199	3.163416381124	400
9	199	3.170919178891	400
9	199	3.178364980318	400
9	199	3.185352343708	400
9	199	3.19301083313	400
9	203	3.2	400
9	204	3.20064810257	400
9	204	3.209283179777	400
9	204	3.216230571048	400
9	204	3.223426180735	400
9	204	3.230954639654	400
9	204	3.238161598998	400
9	204	3.245401621444	400
9	204	3.253509913559	400
10	0	0	500
10	0	0.1	500
10	6	0.2	500
10	11	0.3	500
10	16	0.4	500
10	21	0.5	500
10	26	0.540436798241	500
10	28	0.547717285212	500
10	28	0.55724999395	500
10	28	0.563718714129	500
10	28	0.570531633726	500
10	28	0.576853052184	500
10	28	0.583752082988	500
10	28	0.590769794639	500
10	28	0.597246657757	500
10	32	0.6	500
10	33	0.604636943234	500
10	33	0.611846616891	500
10	33	0.619455511924	500
10	33	0.626040445632	500
10	33	0.632642898083	500
10	33	0.639409184071	500
10	36	0.646404195878	500
10	36	0.655702256708	500
10	36	0.662349615382	500
10	36	0.669037932573	500
10	39	0.676941432106	500
10	39	0.686900503234	500
10	39	0.69432927991	500
10	43	0.7	500
10	44	0.701235466197	500
10	44	0.709473542348	500
10	44	0.716235140169	500
10	44	0.723542768682	500
10	44	0.730925405212	500
10	44	0.738094367348	500
10	44	0.744890015199	500
10	44	0.751376747584	500
10	44	0.75895208658	500
10	44	0.765118059849	500
10	44	0.772235947206	500
10	44	0.779320031	500
10	44	0.785866227041	500
10	44	0.793762818616	500
10	48	0.8	500
10	49	0.800824449563	500
10	49	0.80840941083	500
10	49	0.81574319343	500
10	49	0.822735984917	500
10	49	0.829657715565	500
10	49	0.836623858973	500
10	49	0.843383236474	500
10	49	0.851137460432	500
10	49	0.857820595464	500
10	49	0.864680642134	500
10	49	0.871815800708	500
10	49	0.879162413884	500
10	49	0.886138673555	500
10	49	0.892831431916	500
10	49	0.89963793649	500
10	53	0.9	500
10	54	0.907576719446	500
10	54	0.914789847346	500
10	54	0.922271919652	500
10	54	0.929426077359	500
10	54	0.936271072603	500
10	54	0.94332382121	500
10	54	0.950711885837	500
10	54	0.957743908454	500
10	54	0.964462573906	500
10	54	0.97146375427	500
10	54	0.978555240544	500
10	54	0.985940838383	500
10	54	0.993190483629	500
10	54	0.999979962923	500
10	58	1	500
10	59	1.00704307426	500
10	59	1.016170392537	500
10	59	1.02338179358	500
10	60	1.031499461499	500
10	60	1.040596924978	500
10	60	1.047818195288	500
10	60	1.055005415569	500
10	60	1.062317732248	500
10	61	1.069684577422	500
10	61	1.086733060982	500
10	65	1.1	500
10	66	1.102749191677	500
10	66	1.118838878043	500
10	66	1.133776362033	500
10	66	1.148019952228	500
10	66	1.162105115079	500
10	69	1.178361459712	500
10	69	1.195344103609	500
10	73	1.2	500
10	74	1.210707490712	500
10	75	1.221264232593	500
10	75	1.230889220566	500
10	75	1.23786967494	500
10	75	1.244898983244	500
10	75	1.252097060247	500
10	75	1.259579626016	500
10	75	1.266436957844	500
10	75	1.274637776719	500
10	75	1.28110847128	500
10	75	1.289266604252	500
10	75	1.295643044667	500
10	79	1.3	500
10	80	1.303338051436	500
10	80	1.31077299614	500
10	80	1.317743827714	500
10	80	1.324722801698	500
10	80	1.33255820223	500
10	80	1.339680777224	500
10	80	1.346475931612	500
10	80	1.353480072756	500
10	80	1.360657177302	500
10	80	1.367622333783	500
10	80	1.374600814303	500
10	80	1.382204774702	500
10	80	1.389458861119	500
10	80	1.396080312174	500
10	84	1.4	500
10	85	1.403309230902	500
10	85	1.410914425224	500
10	85	1.418172952811	500
10	85	1.424907163152	500
10	85	1.431811622053	500
10	85	1.439285304953	500
10	85	1.445876900681	500
10	85	1.452906209514	500
10	85	1.459699390048	500
10	85	1.466823198436	500
10	85	1.474019548582	500
10	85	1.480777939156	500
10	85	1.487561003427	500
10	85	1.494289044682	500
10	89	1.5	500
10	90	1.501827126401	500
10	90	1.509384946654	500
10	90	1.51679965936	500
10	90	1.523603202625	500
10	90	1.530732193172	500
10	90	1.538104219975	500
10	90	1.544561344029	500
10	90	1.551765096125	500
10	90	1.558953056336	500
10	90	1.565800765893	500
10	90	1.572887564529	500
10	90	1.580020502782	500
10	90	1.587309872622	500
10	90	1.594017434884	500
10	94	1.6	500
10	95	1.601281144101	500
10	95	1.608612705851	500
10	95	1.616234678456	500
10	95	1.623793979099	500
10	95	1.631011548169	500
10	95	1.638070465332	500
10	95	1.644713629303	500
10	95	1.6516183352	500
10	95	1.658771258984	500
10	95	1.665949350457	500
10	95	1.672797306482	500
10	95	1.679224821677	500
10	95	1.68649914062	500
10	95	1.693058660701	500
10	99	1.7	500
10	100	1.700797092774	500
10	100	1.708408949116	500
10	100	1.715593208616	500
10	100	1.72247521467	500
10	100	1.729360674967	500
10	100	1.736494846614	500
10	100	1.742902376279	500
10	106	1.759207570846	500
10	106	1.784210042219	500
10	113	1.8	500
10	114	1.802534049372	500
10	114	1.822824984728	500
10	114	1.840811136181	500
10	114	1.85847049136	500
10	114	1.875820862015	500
10	114	1.893128234027	500
10	118	1.9	500
10	119	1.910136451092	500
10	119	1.930357357452	500
10	119	1.94847496585	500
10	119	1.966279905442	500
10	119	1.98328627905	500
10	126	2	500
10	127	2.00197885522	500
10	127	2.023242197225	500
10	127	2.040803267158	500
10	127	2.056541149844	500
10	127	2.074124948289	500
10	127	2.092658424871	500
10	131	2.1	500
10	132	2.109679540871	500
10	135	2.129781278246	500
10	136	2.151459259901	500
10	136	2.178757914132	500
10	136	2.196906237164	500
10	140	2.2	500
10	141	2.213981409918	500
10	141	2.232735414039	500
10	141	2.252092640866	500
10	141	2.269549282888	500
10	141	2.286785398688	500
10	145	2.3	500
10	146	2.305893228117	500
10	146	2.325414468664	500
10	146	2.343079966507	500
10	146	2.360927291135	500
10	146	2.380521016426	500
10	146	2.397684032557	500
10	150	2.4	500
10	151	2.41653263501	500
10	151	2.435724007294	500
10	151	2.453813358124	500
10	151	2.471295800649	500
10	151	2.488304016397	500
10	155	2.5	500
10	156	2.507245376358	500
10	157	2.528181305848	500
10	157	2.549258521862	500
10	157	2.569292687307	500
10	157	2.587417666901	500
10	164	2.6	500
10	165	2.604551808893	500
10	165	2.621289647767	500
10	165	2.634630246515	500
10	165	2.64743750372	500
10	165	2.66046858106	500
10	165	2.671428281228	500
10	165	2.683732983607	500
10	165	2.695827177362	500
10	169	2.7	500
10	170	2.708802923687	500
10	170	2.722190533197	500
10	170	2.734238549107	500
10	170	2.745636737268	500
10	170	2.758602082832	500
10	170	2.770851454196	500
10	170	2.782753862125	500
10	170	2.794563080554	500
10	174	2.8	500
10	175	2.80737366586	500
10	175	2.821049578797	500
10	175	2.834908957308	500
10	175	2.847940034648	500
10	175	2.860908292746	500
10	175	2.874098706928	500
10	178	2.887538734027	500
10	182	2.9	500
10	183	2.904919328881	500
10	183	2.918605641688	500
10	183	2.931605517636	500
10	183	2.944366180537	500
10	186	2.956520954773	500
10	186	2.966439314381	500
10	186	2.973709685617	500
10	186	2.981144630321	500
10	186	2.988301748808	500
10	186	2.995910643841	500
10	190	3	500
10	191	3.004174134149	500
10	191	3.01268682927	500
10	191	3.020502737206	500
10	191	3.028197249982	500
10	191	3.036058557604	500
10	191	3.044286271025	500
10	191	3.050885268703	500
10	191	3.058272593399	500
10	194	3.065974508655	500
10	194	3.074205182856	500
10	194	3.081607311453	500
10	194	3.089446166228	500
10	194	3.096620556461	500
10	198	3.1	500
10	199	3.104368117871	500
10	199	3.111904472204	500
10	199	3.119770220997	500
10	199	3.126859239954	500
10	199	3.133806384758	500
10	199	3.141101182695	500
10	199	3.148661717261	500
10	199	3.156028562964	500
10	199	3.163416381124	500
10	199	3.170919178891	500
10	199	3.178364980318	500
10	199	3.185352343708	500
10	199	3.19301083313	500
10	203	3.2	500
10	204	3.20064810257	500
10	204	3.209283179777	500
10	204	3.216230571048	500
10	204	3.223426180735	500
10	204	3.230954639654	500
10	204	3.238161598998	500
10	204	3.245401621444	500
10	204	3.253509913559	500
11	0	0	0
11	0	0.1	0
11	6	0.2	0
11	11	0.3	0
11	16	0.4	0
11	21	0.5	0
11	26	0.540436798241	0
11	28	0.547717285212	0
11	28	0.55724999395	0
11	28	0.563718714129	0
11	28	0.570531633726	0
11	28	0.576853052184	0
11	28	0.583752082988	0
11	28	0.590769794639	0
11	28	0.597246657757	0
11	32	0.6	0
11	33	0.604636943234	0
11	33	0.611846616891	0
11	33	0.619455511924	0
11	33	0.626040445632	0
11	33	0.632642898083	0
11	33	0.639409184071	0
11	36	0.646404195878	0
11	36	0.655702256708	0
11	36	0.662349615382	0
11	36	0.669037932573	0
11	39	0.676941432106	0
11	39	0.686900503234	0
11	39	0.69432927991	0
11	43	0.7	0
11	44	0.701235466197	0
11	44	0.709473542348	0
11	44	0.716235140169	0
11	44	0.723542768682	0
11	44	0.730925405212	0
11	44	0.738094367348	0
11	44	0.744890015199	0
11	44	0.751376747584	0
11	44	0.75895208658	0
11	44	0.765118059849	0
11	44	0.772235947206	0
11	44	0.779320031	0
11	44	0.785866227041	0
11	44	0.793762818616	0
11	48	0.8	0
11	49	0.800824449563	0
11	49	0.80840941083	0
11	49	0.81574319343	0
11	49	0.822735984917	0
11	49	0.829657715565	0
11	49	0.836623858973	0
11	49	0.843383236474	0
11	49	0.851137460432	0
11	49	0.857820595464	0
11	49	0.864680642134	0
11	49	0.871815800708	0
11	49	0.879162413884	0
11	49	0.886138673555	0
11	49	0.892831431916	0
11	49	0.89963793649	0
11	53	0.9	0
11	54	0.907576719446	0
11	54	0.914789847346	0
11	54	0.922271919652	0
11	54	0.929426077359	0
11	54	0.936271072603	0
11	54	0.94332382121	0
11	54	0.950711885837	0
11	54	0.957743908454	0
11	54	0.964462573906	0
11	54	0.97146375427	0
11	54	0.978555240544	0
11	54	0.985940838383	0
11	54	0.993190483629	0
11	54	0.999979962923	0
11	58	1	0
11	59	1.00704307426	0
11	59	1.016170392537	0
11	59	1.02338179358	0
11	60	1.031499461499	0
11	60	1.040596924978	0
11	60	1.047818195288	0
11	60	1.055005415569	0
[...]
12	54	0.907576719446	300
12	54	0.914789847346	300
12	54	0.922271919652	300
12	54	0.929426077359	300
12	54	0.936271072603	300
12	54	0.94332382121	300
12	54	0.950711885837	300
12	54	0.957743908454	300
12	54	0.964462573906	300
12	54	0.97146375427	300
12	54	0.978555240544	300
12	54	0.985940838383	300
12	54	0.993190483629	300
12	54	0.999979962923	300
12	59	1	300
12	59	1.00704307426	300
12	59	1.016170392537	300
12	59	1.02338179358	300
12	60	1.031499461499	300
12	60	1.040596924978	300
12	60	1.047818195288	300
12	60	1.055005415569	300
12	60	1.062317732248	300
12	61	1.069684577422	300
12	61	1.086733060982	300
12	66	1.1	300
12	66	1.102749191677	300
12	66	1.118838878043	300
12	66	1.133776362033	300
12	66	1.148019952228	300
12	66	1.162105115079	300
12	69	1.178361459712	300
12	69	1.195344103609	300
12	74	1.2	300
12	74	1.210707490712	300
12	75	1.221264232593	300
12	75	1.230889220566	300
12	75	1.23786967494	300
12	75	1.244898983244	300
12	75	1.252097060247	300
12	75	1.259579626016	300
12	75	1.266436957844	300
12	75	1.274637776719	300
12	75	1.28110847128	300
12	75	1.289266604252	300
12	75	1.295643044667	300
12	80	1.3	300
12	80	1.303338051436	300
12	80	1.31077299614	300
12	80	1.317743827714	300
12	80	1.324722801698	300
12	80	1.33255820223	300
12	80	1.339680777224	300
12	80	1.346475931612	300
12	80	1.353480072756	300
12	80	1.360657177302	300
12	80	1.367622333783	300
12	80	1.374600814303	300
12	80	1.382204774702	300
12	80	1.389458861119	300
12	80	1.396080312174	300
12	85	1.4	300
12	85	1.403309230902	300
12	85	1.410914425224	300
12	85	1.418172952811	300
12	85	1.424907163152	300
12	85	1.431811622053	300
12	85	1.439285304953	300
12	85	1.445876900681	300
12	85	1.452906209514	300
12	85	1.459699390048	300
12	85	1.466823198436	300
12	85	1.474019548582	300
12	85	1.480777939156	300
12	85	1.487561003427	300
12	85	1.494289044682	300
12	90	1.5	300
12	90	1.501827126401	300
12	90	1.509384946654	300
12	90	1.51679965936	300
12	90	1.523603202625	300
12	90	1.530732193172	300
12	90	1.538104219975	300
12	90	1.544561344029	300
12	90	1.551765096125	300
12	90	1.558953056336	300
12	90	1.565800765893	300
12	90	1.572887564529	300
12	90	1.580020502782	300
12	90	1.587309872622	300
12	90	1.594017434884	300
12	95	1.6	300
12	95	1.601281144101	300
12	95	1.608612705851	300
12	95	1.616234678456	300
12	95	1.623793979099	300
12	95	1.631011548169	300
12	95	1.638070465332	300
12	95	1.644713629303	300
12	95	1.6516183352	300
12	95	1.658771258984	300
12	95	1.665949350457	300
12	95	1.672797306482	300
12	95	1.679224821677	300
12	95	1.68649914062	300
12	95	1.693058660701	300
12	100	1.7	300
12	100	1.700797092774	300
12	100	1.708408949116	300
12	100	1.715593208616	300
12	100	1.72247521467	300
12	100	1.729360674967	300
12	100	1.736494846614	300
12	100	1.742902376279	300
12	106	1.759207570846	300
12	106	1.784210042219	300
12	114	1.8	300
12	114	1.802534049372	300
12	114	1.822824984728	300
12	114	1.840811136181	300
12	114	1.85847049136	300
12	114	1.875820862015	300
12	114	1.893128234027	300
12	119	1.9	300
12	119	1.910136451092	300
12	119	1.930357357452	300
12	119	1.94847496585	300
12	119	1.966279905442	300
12	119	1.98328627905	300
12	127	2	300
12	127	2.00197885522	300
12	127	2.023242197225	300
12	127	2.040803267158	300
12	127	2.056541149844	300
12	127	2.074124948289	300
12	127	2.092658424871	300
12	132	2.1	300
12	132	2.109679540871	300
12	135	2.129781278246	300
12	136	2.151459259901	300
12	136	2.178757914132	300
12	136	2.196906237164	300
12	141	2.2	300
12	141	2.213981409918	300
12	141	2.232735414039	300
12	141	2.252092640866	300
12	141	2.269549282888	300
12	141	2.286785398688	300
12	146	2.3	300
12	146	2.305893228117	300
12	146	2.325414468664	300
12	146	2.343079966507	300
12	146	2.360927291135	300
12	146	2.380521016426	300
12	146	2.397684032557	300
12	151	2.4	300
12	151	2.41653263501	300
12	151	2.435724007294	300
12	151	2.453813358124	300
12	151	2.471295800649	300
12	151	2.488304016397	300
12	156	2.5	300
12	156	2.507245376358	300
12	157	2.528181305848	300
12	157	2.549258521862	300
12	157	2.569292687307	300
12	157	2.587417666901	300
12	165	2.6	300
12	165	2.604551808893	300
12	165	2.621289647767	300
12	165	2.634630246515	300
12	165	2.64743750372	300
12	165	2.66046858106	300
12	165	2.671428281228	300
12	165	2.683732983607	300
12	165	2.695827177362	300
12	170	2.7	300
12	170	2.708802923687	300
12	170	2.722190533197	300
12	170	2.734238549107	300
12	170	2.745636737268	300
12	170	2.758602082832	300
12	170	2.770851454196	300
12	170	2.782753862125	300
12	170	2.794563080554	300
12	175	2.8	300
12	175	2.80737366586	300
12	175	2.821049578797	300
12	175	2.834908957308	300
12	175	2.847940034648	300
12	175	2.860908292746	300
12	175	2.874098706928	300
12	178	2.887538734027	300
12	183	2.9	300
12	183	2.904919328881	300
12	183	2.918605641688	300
12	183	2.931605517636	300
12	183	2.944366180537	300
12	186	2.956520954773	300
12	186	2.966439314381	300
12	186	2.973709685617	300
12	186	2.981144630321	300
12	186	2.988301748808	300
12	186	2.995910643841	300
12	191	3	300
12	191	3.004174134149	300
12	191	3.01268682927	300
12	191	3.020502737206	300
12	191	3.028197249982	300
12	191	3.036058557604	300
12	191	3.044286271025	300
12	191	3.050885268703	300
12	191	3.058272593399	300
12	194	3.065974508655	300
12	194	3.074205182856	300
12	194	3.081607311453	300
12	194	3.089446166228	300
12	194	3.096620556461	300
12	199	3.1	300
12	199	3.104368117871	300
12	199	3.111904472204	300
12	199	3.119770220997	300
12	199	3.126859239954	300
12	199	3.133806384758	300
12	199	3.141101182695	300
12	199	3.148661717261	300
12	199	3.156028562964	300
12	199	3.163416381124	300
12	199	3.170919178891	300
12	199	3.178364980318	300
12	199	3.185352343708	300
12	199	3.19301083313	300
12	204	3.2	300
12	204	3.20064810257	300
12	204	3.209283179777	300
12	204	3.216230571048	300
12	204	3.223426180735	300
12	204	3.230954639654	300
12	204	3.238161598998	300
12	204	3.245401621444	300
12	204	3.253509913559	300
13	0	0	180
13	0	0.1	180
13	6	0.2	180
13	11	0.3	180
13	16	0.4	180
13	21	0.5	180
13	26	0.540436798241	180
13	28	0.547717285212	180
13	28	0.55724999395	180
13	28	0.563718714129	180
13	28	0.570531633726	180
13	28	0.576853052184	180
13	28	0.583752082988	180
13	28	0.590769794639	180
13	28	0.597246657757	180
13	33	0.6	180
13	33	0.604636943234	180
13	33	0.611846616891	180
13	33	0.619455511924	180
13	33	0.626040445632	180
13	33	0.632642898083	180
13	33	0.639409184071	180
13	36	0.646404195878	180
13	36	0.655702256708	180
13	36	0.662349615382	180
13	36	0.669037932573	180
13	39	0.676941432106	180
13	39	0.686900503234	180
13	39	0.69432927991	180
13	44	0.7	180
13	44	0.701235466197	180
13	44	0.709473542348	180
13	44	0.716235140169	180
13	44	0.723542768682	180
13	44	0.730925405212	180
13	44	0.738094367348	180
13	44	0.744890015199	180
13	44	0.751376747584	180
13	44	0.75895208658	180
13	44	0.765118059849	180
13	44	0.772235947206	180
13	44	0.779320031	180
13	44	0.785866227041	180
13	44	0.793762818616	180
13	49	0.8	180
13	49	0.800824449563	180
13	49	0.80840941083	180
13	49	0.81574319343	180
13	49	0.822735984917	180
13	49	0.829657715565	180
13	49	0.836623858973	180
13	49	0.843383236474	180
13	49	0.851137460432	180
13	49	0.857820595464	180
13	49	0.864680642134	180
13	49	0.871815800708	180
13	49	0.879162413884	180
13	49	0.886138673555	180
13	49	0.892831431916	180
13	49	0.89963793649	180
13	54	0.9	180
13	54	0.907576719446	180
13	54	0.914789847346	180
13	54	0.922271919652	180
13	54	0.929426077359	180
13	54	0.936271072603	180
13	54	0.94332382121	180
13	54	0.950711885837	180
13	54	0.957743908454	180
13	54	0.964462573906	180
13	54	0.97146375427	180
13	54	0.978555240544	180
13	54	0.985940838383	180
13	54	0.993190483629	180
13	54	0.999979962923	180
13	59	1	180
13	59	1.00704307426	180
13	59	1.016170392537	180
13	59	1.02338179358	180
13	60	1.031499461499	180
13	60	1.040596924978	180
13	60	1.047818195288	180
13	60	1.055005415569	180
13	60	1.062317732248	180
13	61	1.069684577422	180
13	61	1.086733060982	180
13	66	1.1	180
13	66	1.102749191677	180
13	66	1.118838878043	180
13	66	1.133776362033	180
13	66	1.148019952228	180
13	66	1.162105115079	180
13	69	1.178361459712	180
13	69	1.195344103609	180
13	74	1.2	180
13	74	1.210707490712	180
13	75	1.221264232593	180
13	75	1.230889220566	180
13	75	1.23786967494	180
13	75	1.244898983244	180
13	75	1.252097060247	180
13	75	1.259579626016	180
13	75	1.266436957844	180
13	75	1.274637776719	180
13	75	1.28110847128	180
13	75	1.289266604252	180
13	75	1.295643044667	180
13	80	1.3	180
13	80	1.303338051436	180
13	80	1.31077299614	180
13	80	1.317743827714	180
13	80	1.324722801698	180
13	80	1.33255820223	180
13	80	1.339680777224	180
13	80	1.346475931612	180
13	80	1.353480072756	180
13	80	1.360657177302	180
13	80	1.367622333783	180
13	80	1.374600814303	180
13	80	1.382204774702	180
13	80	1.389458861119	180
13	80	1.396080312174	180
13	85	1.4	180
13	85	1.403309230902	180
13	85	1.410914425224	180
13	85	1.418172952811	180
13	85	1.424907163152	180
13	85	1.431811622053	180
13	85	1.439285304953	180
13	85	1.445876900681	180
13	85	1.452906209514	180
13	85	1.459699390048	180
13	85	1.466823198436	180
13	85	1.474019548582	180
13	85	1.480777939156	180
13	85	1.487561003427	180
13	85	1.494289044682	180
13	90	1.5	180
13	90	1.501827126401	180
13	90	1.509384946654	180
13	90	1.51679965936	180
13	90	1.523603202625	180
13	90	1.530732193172	180
13	90	1.538104219975	180
13	90	1.544561344029	180
13	90	1.551765096125	180
13	90	1.558953056336	180
13	90	1.565800765893	180
13	90	1.572887564529	180
13	90	1.580020502782	180
13	90	1.587309872622	180
13	90	1.594017434884	180
13	95	1.6	180
13	95	1.601281144101	180
13	95	1.608612705851	180
13	95	1.616234678456	180
13	95	1.623793979099	180
13	95	1.631011548169	180
13	95	1.638070465332	180
13	95	1.644713629303	180
13	95	1.6516183352	180
13	95	1.658771258984	180
13	95	1.665949350457	180
13	95	1.672797306482	180
13	95	1.679224821677	180
13	95	1.68649914062	180
13	95	1.693058660701	180
13	100	1.7	180
13	100	1.700797092774	180
13	100	1.708408949116	180
13	100	1.715593208616	180
13	100	1.72247521467	180
13	100	1.729360674967	180
13	100	1.736494846614	180
13	100	1.742902376279	180
13	106	1.759207570846	180
13	106	1.784210042219	180
13	114	1.8	180
13	114	1.802534049372	180
13	114	1.822824984728	180
13	114	1.840811136181	180
13	114	1.85847049136	180
13	114	1.875820862015	180
13	114	1.893128234027	180
13	119	1.9	180
13	119	1.910136451092	180
13	119	1.930357357452	180
13	119	1.94847496585	180
13	119	1.966279905442	180
13	119	1.98328627905	180
13	127	2	180
13	127	2.00197885522	180
13	127	2.023242197225	180
13	127	2.040803267158	180
13	127	2.056541149844	180
13	127	2.074124948289	180
13	127	2.092658424871	180
13	132	2.1	180
13	132	2.109679540871	180
13	135	2.129781278246	180
13	136	2.151459259901	180
13	136	2.178757914132	180
13	136	2.196906237164	180
13	141	2.2	180
13	141	2.213981409918	180
13	141	2.232735414039	180
13	141	2.252092640866	180
13	141	2.269549282888	180
13	141	2.286785398688	180
13	146	2.3	180
13	146	2.305893228117	180
13	146	2.325414468664	180
13	146	2.343079966507	180
13	146	2.360927291135	180
13	146	2.380521016426	180
13	146	2.397684032557	180
13	151	2.4	180
13	151	2.41653263501	180
13	151	2.435724007294	180
13	151	2.453813358124	180
13	151	2.471295800649	180
13	151	2.488304016397	180
13	156	2.5	180
13	156	2.507245376358	180
13	157	2.528181305848	180
13	157	2.549258521862	180
13	157	2.569292687307	180
13	157	2.587417666901	180
13	165	2.6	180
13	165	2.604551808893	180
13	165	2.621289647767	180
13	165	2.634630246515	180
13	165	2.64743750372	180
13	165	2.66046858106	180
13	165	2.671428281228	180
13	165	2.683732983607	180
13	165	2.695827177362	180
13	170	2.7	180
13	170	2.708802923687	180
13	170	2.722190533197	180
13	170	2.734238549107	180
13	170	2.745636737268	180
13	170	2.758602082832	180
13	170	2.770851454196	180
13	170	2.782753862125	180
13	170	2.794563080554	180
13	175	2.8	180
13	175	2.80737366586	180
13	175	2.821049578797	180
13	175	2.834908957308	180
13	175	2.847940034648	180
13	175	2.860908292746	180
13	175	2.874098706928	180
13	178	2.887538734027	180
13	183	2.9	180
13	183	2.904919328881	180
13	183	2.918605641688	180
13	183	2.931605517636	180
13	183	2.944366180537	180
13	186	2.956520954773	180
13	186	2.966439314381	180
13	186	2.973709685617	180
13	186	2.981144630321	180
13	186	2.988301748808	180
13	186	2.995910643841	180
13	191	3	180
13	191	3.004174134149	180
13	191	3.01268682927	180
13	191	3.020502737206	180
13	191	3.028197249982	180
13	191	3.036058557604	180
13	191	3.044286271025	180
13	191	3.050885268703	180
13	191	3.058272593399	180
13	194	3.065974508655	180
13	194	3.074205182856	180
13	194	3.081607311453	180
13	194	3.089446166228	180
13	194	3.096620556461	180
13	199	3.1	180
13	199	3.104368117871	180
13	199	3.111904472204	180
13	199	3.119770220997	180
13	199	3.126859239954	180
13	199	3.133806384758	180
13	199	3.141101182695	180
13	199	3.148661717261	180
13	199	3.156028562964	180
13	199	3.163416381124	180
13	199	3.170919178891	180
13	199	3.178364980318	180
13	199	3.185352343708	180
13	199	3.19301083313	180
13	204	3.2	180
13	204	3.20064810257	180
13	204	3.209283179777	180
13	204	3.216230571048	180
13	204	3.223426180735	180
13	204	3.230954639654	180
13	204	3.238161598998	180
13	204	3.245401621444	180
13	204	3.253509913559	180
14	0	0	0
14	0	0.1	0
14	6	0.2	0
14	11	0.3	0
14	16	0.4	0
14	21	0.5	0
14	26	0.540436798241	0
14	28	0.547717285212	0
14	28	0.55724999395	0
14	28	0.563718714129	0
14	28	0.570531633726	0
14	28	0.576853052184	0
14	28	0.583752082988	0
14	28	0.590769794639	0
14	28	0.597246657757	0
14	33	0.6	0
14	33	0.604636943234	0
14	33	0.611846616891	0
14	33	0.619455511924	0
14	33	0.626040445632	0
14	33	0.632642898083	0
14	33	0.639409184071	0
14	36	0.646404195878	0
14	36	0.655702256708	0
14	36	0.662349615382	0
14	36	0.669037932573	0
14	39	0.676941432106	0
14	39	0.686900503234	0
14	39	0.69432927991	0
14	44	0.7	0
14	44	0.701235466197	0
14	44	0.709473542348	0
14	44	0.716235140169	0
14	44	0.723542768682	0
14	44	0.730925405212	0
14	44	0.738094367348	0
14	44	0.744890015199	0
14	44	0.751376747584	0
14	44	0.75895208658	0
14	44	0.765118059849	0
14	44	0.772235947206	0
14	44	0.779320031	0
14	44	0.785866227041	0
14	44	0.793762818616	0
14	49	0.8	0
14	49	0.800824449563	0
14	49	0.80840941083	0
14	49	0.81574319343	0
14	49	0.822735984917	0
14	49	0.829657715565	0
14	49	0.836623858973	0
14	49	0.843383236474	0
14	49	0.851137460432	0
14	49	0.857820595464	0
14	49	0.864680642134	0
14	49	0.871815800708	0
14	49	0.879162413884	0
14	49	0.886138673555	0
14	49	0.892831431916	0
14	49	0.89963793649	0
14	54	0.9	0
14	54	0.907576719446	0
14	54	0.914789847346	0
14	54	0.922271919652	0
14	54	0.929426077359	0
14	54	0.936271072603	0
14	54	0.94332382121	0
14	54	0.950711885837	0
14	54	0.957743908454	0
14	54	0.964462573906	0
14	54	0.97146375427	0
14	54	0.978555240544	0
14	54	0.985940838383	0
14	54	0.993190483629	0
14	54	0.999979962923	0
14	59	1	0
14	59	1.00704307426	0
14	59	1.016170392537	0
14	59	1.02338179358	0
14	60	1.031499461499	0
14	60	1.040596924978	0
14	60	1.047818195288	0
14	60	1.055005415569	0
14	60	1.062317732248	0
14	61	1.069684577422	0
14	61	1.086733060982	0
14	66	1.1	0
14	66	1.102749191677	0
14	66	1.118838878043	0
14	66	1.133776362033	0
14	66	1.148019952228	0
14	66	1.162105115079	0
14	69	1.178361459712	0
14	69	1.195344103609	0
14	74	1.2	0
14	74	1.210707490712	0
14	75	1.221264232593	0
14	75	1.230889220566	0
14	75	1.23786967494	0
14	75	1.244898983244	0
14	75	1.252097060247	0
14	75	1.259579626016	0
14	75	1.266436957844	0
14	75	1.274637776719	0
14	75	1.28110847128	0
14	75	1.289266604252	0
14	75	1.295643044667	0
14	80	1.3	0
14	80	1.303338051436	0
14	80	1.31077299614	0
14	80	1.317743827714	0
14	80	1.324722801698	0
14	80	1.33255820223	0
14	80	1.339680777224	0
14	80	1.346475931612	0
14	80	1.353480072756	0
14	80	1.360657177302	0
14	80	1.367622333783	0
14	80	1.374600814303	0
14	80	1.382204774702	0
14	80	1.389458861119	0
14	80	1.396080312174	0
14	85	1.4	0
14	85	1.403309230902	0
14	85	1.410914425224	0
14	85	1.418172952811	0
14	85	1.424907163152	0
14	85	1.431811622053	0
14	85	1.439285304953	0
14	85	1.445876900681	0
14	85	1.452906209514	0
14	85	1.459699390048	0
14	85	1.466823198436	0
14	85	1.474019548582	0
14	85	1.480777939156	0
14	85	1.487561003427	0
14	85	1.494289044682	0
14	90	1.5	0
14	90	1.501827126401	0
14	90	1.509384946654	0
14	90	1.51679965936	0
14	90	1.523603202625	0
14	90	1.530732193172	0
14	90	1.538104219975	0
14	90	1.544561344029	0
14	90	1.551765096125	0
14	90	1.558953056336	0
14	90	1.565800765893	0
14	90	1.572887564529	0
14	90	1.580020502782	0
14	90	1.587309872622	0
14	90	1.594017434884	0
14	95	1.6	0
14	95	1.601281144101	0
14	95	1.608612705851	0
14	95	1.616234678456	0
14	95	1.623793979099	0
14	95	1.631011548169	0
14	95	1.638070465332	0
14	95	1.644713629303	0
14	95	1.6516183352	0
14	95	1.658771258984	0
14	95	1.665949350457	0
14	95	1.672797306482	0
14	95	1.679224821677	0
14	95	1.68649914062	0
14	95	1.693058660701	0
14	100	1.7	0
14	100	1.700797092774	0
14	100	1.708408949116	0
14	100	1.715593208616	0
14	100	1.72247521467	0
14	100	1.729360674967	0
14	100	1.736494846614	0
14	100	1.742902376279	0
14	106	1.759207570846	0
14	106	1.784210042219	0
14	114	1.8	0
14	114	1.802534049372	0
14	114	1.822824984728	0
14	114	1.840811136181	0
14	114	1.85847049136	0
14	114	1.875820862015	0
14	114	1.893128234027	0
14	119	1.9	0
14	119	1.910136451092	0
14	119	1.930357357452	0
14	119	1.94847496585	0
14	119	1.966279905442	0
14	119	1.98328627905	0
14	127	2	0
14	127	2.00197885522	0
14	127	2.023242197225	0
14	127	2.040803267158	0
14	127	2.056541149844	0
14	127	2.074124948289	0
14	127	2.092658424871	0
14	132	2.1	0
14	132	2.109679540871	0
14	135	2.129781278246	0
14	136	2.151459259901	0
14	136	2.178757914132	0
14	136	2.196906237164	0
14	141	2.2	0
14	141	2.213981409918	0
14	141	2.232735414039	0
14	141	2.252092640866	0
14	141	2.269549282888	0
14	141	2.286785398688	0
14	146	2.3	0
14	146	2.305893228117	0
14	146	2.325414468664	0
14	146	2.343079966507	0
14	146	2.360927291135	0
14	146	2.380521016426	0
14	146	2.397684032557	0
14	151	2.4	0
14	151	2.41653263501	0
14	151	2.435724007294	0
14	151	2.453813358124	0
14	151	2.471295800649	0
14	151	2.488304016397	0
14	156	2.5	0
14	156	2.507245376358	0
14	157	2.528181305848	0
14	157	2.549258521862	0
14	157	2.569292687307	0
14	157	2.587417666901	0
14	165	2.6	0
14	165	2.604551808893	0
14	165	2.621289647767	0
14	165	2.634630246515	0
14	165	2.64743750372	0
14	165	2.66046858106	0
14	165	2.671428281228	0
14	165	2.683732983607	0
14	165	2.695827177362	0
14	170	2.7	0
14	170	2.708802923687	0
14	170	2.722190533197	0
14	170	2.734238549107	0
14	170	2.745636737268	0
14	170	2.758602082832	0
14	170	2.770851454196	0
14	170	2.782753862125	0
14	170	2.794563080554	0
14	175	2.8	0
14	175	2.80737366586	0
14	175	2.821049578797	0
14	175	2.834908957308	0
14	175	2.847940034648	0
14	175	2.860908292746	0
14	175	2.874098706928	0
14	178	2.887538734027	0
14	183	2.9	0
14	183	2.904919328881	0
14	183	2.918605641688	0
14	183	2.931605517636	0
14	183	2.944366180537	0
14	186	2.956520954773	0
14	186	2.966439314381	0
14	186	2.973709685617	0
14	186	2.981144630321	0
14	186	2.988301748808	0
14	186	2.995910643841	0
14	191	3	0
14	191	3.004174134149	0
14	191	3.01268682927	0
14	191	3.020502737206	0
14	191	3.028197249982	0
14	191	3.036058557604	0
14	191	3.044286271025	0
14	191	3.050885268703	0
14	191	3.058272593399	0
14	194	3.065974508655	0
14	194	3.074205182856	0
14	194	3.081607311453	0
14	194	3.089446166228	0
14	194	3.096620556461	0
14	199	3.1	0
14	199	3.104368117871	0
14	199	3.111904472204	0
14	199	3.119770220997	0
14	199	3.126859239954	0
14	199	3.133806384758	0
14	199	3.141101182695	0
14	199	3.148661717261	0
14	199	3.156028562964	0
14	199	3.163416381124	0
14	199	3.170919178891	0
14	199	3.178364980318	0
14	199	3.185352343708	0
14	199	3.19301083313	0
14	204	3.2	0
14	204	3.20064810257	0
14	204	3.209283179777	0
14	204	3.216230571048	0
14	204	3.223426180735	0
14	204	3.230954639654	0
14	204	3.238161598998	0
14	204	3.245401621444	0
14	204	3.253509913559	0
15	69	1.174792323261	0
15	103	1.744673949807	1.102601832385
15	122	1.991013863682	1.316755269746
15	194	3.061473530413	2.521036732172
16	109	1.796343753114	0

