version 2
run Net5_moving-0-20190310-20:42:48-888
attr configname Net5_moving
attr datetime 20190310-20:42:48
attr experiment Net5_moving
attr inifile omnetpp.ini
attr iterationvars ""
attr iterationvarsf ""
attr measurement ""
attr network Networks.Net5_moving
attr processid 888
attr repetition 0
attr replication #0
attr resultdir results
attr runnumber 0
attr seedset 0
param **.destAddresses "\"1 3\""
param **.sendIaTime "uniform(500ms, 1500ms)"
param **.rte*.mobility.typename "\"AnsimMobility\""
param **.rte*.mobility.ansimTrace "xmldoc(\"ansimtrace.xml\")"
param **.rte*.mobility.nodeId -1
param **.appType "\"App\""
param **.app.packetLength "4096 bytes"
param **.constraintAreaMinX 0m
param **.constraintAreaMinY 0m
param **.constraintAreaMinZ 0m
param **.constraintAreaMaxX 2000m
param **.constraintAreaMaxY 2000m
param **.constraintAreaMaxZ 0m

vector 0 Net5_moving.rte[0] coordX:vector ETV
attr interpolationmode linear
attr source xCoord(mobilityPos(mobilityStateChanged))
attr title "coord X, vector"
vector 1 Net5_moving.rte[0] coordY:vector ETV
attr interpolationmode linear
attr source yCoord(mobilityPos(mobilityStateChanged))
attr title "coord Y, vector"
vector 2 Net5_moving.rte[0] coordZ:vector ETV
attr interpolationmode linear
attr source zCoord(mobilityPos(mobilityStateChanged))
attr title "coord Z, vector"
vector 3 Net5_moving.rte[1] coordX:vector ETV
attr interpolationmode linear
attr source xCoord(mobilityPos(mobilityStateChanged))
attr title "coord X, vector"
vector 4 Net5_moving.rte[1] coordY:vector ETV
attr interpolationmode linear
attr source yCoord(mobilityPos(mobilityStateChanged))
attr title "coord Y, vector"
vector 5 Net5_moving.rte[1] coordZ:vector ETV
attr interpolationmode linear
attr source zCoord(mobilityPos(mobilityStateChanged))
attr title "coord Z, vector"
vector 6 Net5_moving.rte[2] coordX:vector ETV
attr interpolationmode linear
attr source xCoord(mobilityPos(mobilityStateChanged))
attr title "coord X, vector"
vector 7 Net5_moving.rte[2] coordY:vector ETV
attr interpolationmode linear
attr source yCoord(mobilityPos(mobilityStateChanged))
attr title "coord Y, vector"
vector 8 Net5_moving.rte[2] coordZ:vector ETV
attr interpolationmode linear
attr source zCoord(mobilityPos(mobilityStateChanged))
attr title "coord Z, vector"
vector 9 Net5_moving.rte[3] coordX:vector ETV
attr interpolationmode linear
attr source xCoord(mobilityPos(mobilityStateChanged))
attr title "coord X, vector"
vector 10 Net5_moving.rte[3] coordY:vector ETV
attr interpolationmode linear
attr source yCoord(mobilityPos(mobilityStateChanged))
attr title "coord Y, vector"
vector 11 Net5_moving.rte[3] coordZ:vector ETV
attr interpolationmode linear
attr source zCoord(mobilityPos(mobilityStateChanged))
attr title "coord Z, vector"
vector 12 Net5_moving.rte[4] coordX:vector ETV
attr interpolationmode linear
attr source xCoord(mobilityPos(mobilityStateChanged))
attr title "coord X, vector"
vector 13 Net5_moving.rte[4] coordY:vector ETV
attr interpolationmode linear
attr source yCoord(mobilityPos(mobilityStateChanged))
attr title "coord Y, vector"
vector 14 Net5_moving.rte[4] coordZ:vector ETV
attr interpolationmode linear
attr source zCoord(mobilityPos(mobilityStateChanged))
attr title "coord Z, vector"
vector 15 Net5_moving.rte[1].app endToEndDelay:vector ETV
attr interpolationmode none
attr title "end-to-end delay of arrived packets, vector"
attr unit s
vector 16 Net5_moving.rte[3].app endToEndDelay:vector ETV
attr interpolationmode none
attr title "end-to-end delay of arrived packets, vector"
attr unit s
0	0	0	50
0	0	0.1	50
0	6	0.2	50
0	11	0.3	50
0	16	0.4	50
0	21	0.5	50
0	26	0.52021839912	50
0	28	0.526972102057	50
0	28	0.536847282299	50
0	28	0.544091992383	50
0	28	0.55112253461	50
0	28	0.558279653097	50
0	28	0.565050627251	50
0	31	0.571901791052	50
0	31	0.581598086331	50
0	34	0.589714027393	50
0	34	0.599202816306	50
0	35	0.6	50
0	39	0.607162078785	50
0	39	0.614521769005	50
0	39	0.622056889415	50
0	39	0.628965049556	50
0	39	0.636755790332	50
0	39	0.643602759959	50
0	39	0.650844015799	50
0	39	0.658178538858	50
0	39	0.665430157429	50
0	39	0.672484633422	50
0	39	0.679528005696	50
0	39	0.687191183285	50
0	39	0.693596245104	50
0	40	0.7	50
0	44	0.701152092033	50
0	44	0.70861935938	50
0	44	0.716471538195	50
0	44	0.723715754816	50
0	44	0.730664626477	50
0	44	0.737810642303	50
0	44	0.744460961228	50
0	44	0.75224750783	50
0	44	0.759052531485	50
0	44	0.765995975049	50
0	44	0.773804974498	50
0	44	0.780656385295	50
0	44	0.788332886394	50
0	44	0.795268434545	50
0	45	0.8	50
0	49	0.803874396356	50
0	49	0.811600738312	50
0	49	0.81944822896	50
0	49	0.827768221615	50
0	49	0.835077330518	50
0	52	0.842623307651	50
0	52	0.850360753326	50
0	52	0.860266528825	50
0	52	0.869179679245	50
0	52	0.877861142536	50
0	52	0.886449832601	50
0	52	0.898924147284	50
0	53	0.9	50
0	57	0.906481227607	50
0	57	0.914447398573	50
0	57	0.922164118258	50
0	57	0.929838645504	50
0	57	0.937523782477	50
0	57	0.944681887891	50
0	57	0.952217255297	50
0	58	0.959268769981	50
0	58	0.967955661898	50
0	58	0.975541610091	50
0	59	0.982816422498	50
0	59	0.990761621007	50
0	59	0.998352997826	50
0	60	1	50
0	64	1.006056393472	50
0	64	1.013804448345	50
0	64	1.021901390803	50
0	64	1.029550750889	50
0	64	1.037484352744	50
0	64	1.044295051492	50
0	64	1.052781099063	50
0	64	1.06782557292	50
0	64	1.083301608442	50
0	64	1.098016881777	50
0	65	1.1	50
0	69	1.112959509405	50
0	69	1.128530704978	50
0	69	1.143876602611	50
0	72	1.161191019399	50
0	72	1.17833209064	50
0	72	1.193831273082	50
0	74	1.2	50
0	78	1.201863409254	50
0	78	1.20947945977	50
0	78	1.217156701329	50
0	78	1.224175646374	50
0	78	1.23121507147	50
0	78	1.238695909324	50
0	78	1.245785421744	50
0	78	1.253068623556	50
0	78	1.260633599292	50
0	78	1.267587159119	50
0	78	1.274497046646	50
0	78	1.28191940777	50
0	78	1.289264787023	50
0	78	1.296003931997	50
0	79	1.3	50
0	83	1.303608632856	50
0	83	1.311349285779	50
0	83	1.318665550165	50
0	83	1.325980333632	50
0	83	1.332757723339	50
0	83	1.340653080462	50
0	83	1.347500543552	50
0	83	1.353988262863	50
0	83	1.36111651295	50
0	83	1.368433764263	50
0	83	1.375030294625	50
0	83	1.382034682765	50
0	83	1.389799515921	50
0	83	1.396779970295	50
0	84	1.4	50
0	88	1.404258834295	50
0	88	1.411799629798	50
0	88	1.418960696521	50
0	88	1.426852105937	50
0	88	1.43396949983	50
0	88	1.441400003364	50
0	88	1.448196144678	50
0	88	1.45557631442	50
0	88	1.462049722765	50
0	88	1.469195244599	50
0	88	1.476312391496	50
0	88	1.483995307619	50
0	88	1.491063847582	50
0	88	1.498028017136	50
0	89	1.5	50
0	93	1.505755099552	50
0	93	1.513132061518	50
0	93	1.520493478595	50
0	93	1.527692295529	50
0	93	1.534501267419	50
0	93	1.542027998952	50
0	93	1.549406934771	50
0	93	1.556403920432	50
0	96	1.563684900866	50
0	96	1.574056764406	50
0	96	1.581367106703	50
0	96	1.589339939689	50
0	96	1.596113134693	50
0	97	1.6	50
0	101	1.603739794936	50
0	101	1.61078020643	50
0	101	1.618371829716	50
0	101	1.6254618356	50
0	101	1.63287186014	50
0	101	1.63991621987	50
0	101	1.64724630123	50
0	101	1.654625483517	50
0	101	1.661952604097	50
0	101	1.668519279661	50
0	104	1.676367263773	50
0	104	1.684290008906	50
0	104	1.691421713237	50
0	104	1.69896769037	50
0	105	1.7	50
0	109	1.706635309129	50
0	109	1.714253086502	50
0	109	1.721478551515	50
0	112	1.735714772912	50
0	112	1.755542540918	50
0	112	1.771918047859	50
0	112	1.789788100999	50
0	116	1.8	50
0	120	1.805572827024	50
0	120	1.823131479735	50
0	120	1.834705645243	50
0	120	1.847874842336	50
0	120	1.859856710903	50
0	120	1.872084448719	50
0	120	1.884039275129	50
0	120	1.895643394436	50
0	121	1.9	50
0	128	1.909168290783	50
0	128	1.922607903207	50
0	128	1.936109501956	50
0	131	1.948418363569	50
0	132	1.966767042508	50
0	135	1.98277487925	50
0	135	1.992925418392	50
0	136	2	50
0	140	2.00115707952	50
0	140	2.009415634665	50
0	140	2.017183922065	50
0	140	2.024458981468	50
0	140	2.03225885158	50
0	140	2.039621255584	50
0	140	2.047397438926	50
0	140	2.054871615289	50
0	140	2.062438564879	50
0	140	2.070086691042	50
0	140	2.077963543553	50
0	140	2.085437966383	50
0	140	2.092975554638	50
0	141	2.1	50
0	145	2.101539077542	50
0	145	2.109555336361	50
0	145	2.117027785338	50
0	145	2.124267807784	50
0	145	2.131232964265	50
0	145	2.138809290187	50
0	145	2.146306413389	50
0	145	2.153941462509	50
0	145	2.161026533759	50
0	145	2.169155798331	50
0	145	2.177020560197	50
0	145	2.184720255132	50
0	145	2.19193807067	50
0	146	2.2	50
0	150	2.200542552091	50
0	150	2.207784054928	50
0	150	2.215164471137	50
0	150	2.223148407313	50
0	150	2.230755575489	50
0	150	2.238332887809	50
0	150	2.245931913575	50
0	150	2.253376481608	50
0	150	2.260550377849	50
0	150	2.268018632652	50
0	150	2.275385724822	50
0	150	2.282881861098	50
0	150	2.290505560032	50
0	150	2.298035499341	50
0	151	2.3	50
0	155	2.306381646612	50
0	155	2.314688068761	50
0	155	2.32214472691	50
0	159	2.330948818755	50
0	159	2.339387245789	50
0	160	2.347239671071	50
0	160	2.355811829849	50
0	160	2.363395064258	50
0	160	2.370692083044	50
0	160	2.378104328433	50
0	160	2.385911353499	50
0	160	2.393426488378	50
0	161	2.4	50
0	165	2.401316417933	50
0	165	2.409271239242	50
0	165	2.416415033689	50
0	165	2.423902040628	50
0	165	2.430812174622	50
0	165	2.438034184863	50
0	165	2.445336631746	50
0	165	2.452531254506	50
0	165	2.460047622779	50
0	165	2.467290606006	50
0	165	2.475053218841	50
0	165	2.482811636973	50
0	165	2.489852788926	50
0	165	2.497759249239	50
0	166	2.5	50
0	170	2.505902331314	50
0	170	2.514226272205	50
0	170	2.527614712849	50
0	170	2.539510881035	50
0	170	2.551978663924	50
0	170	2.564513841747	50
0	170	2.576724939059	50
0	170	2.588583664326	50
0	171	2.6	50
0	175	2.600882958095	50
0	175	2.615442918786	50
0	175	2.627690209641	50
0	175	2.640207498476	50
0	175	2.651490448914	50
0	176	2.659351039846	50
0	176	2.667382350091	50
0	176	2.675132625814	50
0	176	2.682858474307	50
0	176	2.690645760839	50
0	176	2.698690394594	50
0	177	2.7	50
0	184	2.707723705721	50
0	184	2.718613224487	50
0	184	2.7258823618	50
0	184	2.733566018383	50
0	184	2.740731032812	50
0	184	2.747954029979	50
0	184	2.755586365315	50
0	184	2.763299383761	50
0	184	2.770401726229	50
0	184	2.778108329651	50
0	184	2.784582231459	50
0	184	2.791982139736	50
0	184	2.799264601089	50
0	185	2.8	50
0	189	2.807789386327	50
0	189	2.815448369213	50
0	189	2.822909715	50
0	189	2.830066340024	50
0	192	2.838123804355	50
0	192	2.846525714043	50
0	192	2.853420303677	50
0	192	2.860855495377	50
0	192	2.868253676796	50
0	192	2.875237585413	50
0	195	2.883414470521	50
0	195	2.891707322163	50
0	195	2.899324606602	50
0	196	2.9	50
0	200	2.906869843275	50
0	200	2.91510841289	50
0	200	2.923229288585	50
0	200	2.930427365588	50
0	200	2.937633831468	50
0	200	2.944935784888	50
0	203	2.952440556508	50
0	206	2.963662677511	50
0	206	2.975191987123	50
0	206	2.98234318405	50
0	206	2.989634280747	50
0	206	2.997005074157	50
0	207	3	50
0	211	3.005357142988	50
0	211	3.013184894573	50
0	211	3.020705704017	50
0	211	3.028542337943	50
0	211	3.036115209622	50
0	211	3.043370529433	50
0	214	3.051142271605	50
0	214	3.059888627179	50
0	214	3.067363050009	50
0	214	3.074811072285	50
0	214	3.082836707437	50
0	214	3.090129777988	50
0	215	3.097440860745	50
0	216	3.1	50
0	220	3.108253891104	50
0	220	3.115733742031	50
0	220	3.124357469052	50
0	220	3.131355442168	50
0	220	3.138994932458	50
0	220	3.146249265871	50
0	220	3.154226046563	50
0	220	3.161405617897	50
0	220	3.169301716008	50
0	220	3.176670041572	50
0	223	3.184510623733	50
0	223	3.194885200528	50
0	224	3.2	50
0	228	3.203262930512	50
0	228	3.211353703884	50
0	228	3.219757587955	50
0	228	3.226881890335	50
0	228	3.234172987032	50
0	228	3.242008140568	50
0	228	3.249194620918	50
0	228	3.256643136657	50
0	228	3.26439785355	50
0	231	3.272083977449	50
0	231	3.279893716828	50
0	231	3.288153505896	50
0	231	3.295275094492	50
0	232	3.3	50
0	236	3.303192164532	50
0	236	3.311322663027	50
0	236	3.318605370847	50
0	236	3.326047224567	50
0	236	3.333374345676	50
0	236	3.341072312696	50
0	236	3.348013782936	50
0	240	3.356395953561	50
0	240	3.36430932289	50
0	240	3.372658183945	50
0	240	3.380253015008	50
0	240	3.387366707662	50
0	240	3.394575394392	50
0	241	3.4	50
0	245	3.402450272521	50
0	245	3.410955318695	50
0	248	3.418546699953	50
0	248	3.425651740568	50
0	248	3.431177247044	50
0	248	3.436866788989	50
0	248	3.443196552064	50
0	248	3.448739767688	50
0	248	3.454495138782	50
0	248	3.460184501657	50
0	248	3.465644358438	50
0	248	3.471097238388	50
0	248	3.476408622307	50
0	248	3.482217658055	50
0	248	3.487662846428	50
0	248	3.493112506568	50
0	248	3.498424606001	50
0	249	3.5	50
0	253	3.504837191859	50
0	253	3.510888434639	50
0	253	3.516073885135	50
0	253	3.521673270093	50
0	253	3.527458335376	50
0	253	3.534153198166	50
0	253	3.540310876054	50
0	253	3.546978905942	50
0	253	3.553075048146	50
0	253	3.558844729507	50
0	253	3.565159287731	50
0	253	3.570889256949	50
0	254	3.576455727525	50
0	254	3.582733435659	50
0	254	3.58828613241	50
0	254	3.594221459338	50
0	254	3.599768610669	50
0	255	3.6	50
0	265	3.606268312007	50
0	265	3.614482425208	50
0	265	3.621020407663	50
0	266	3.626736960814	50
0	266	3.633878493379	50
0	266	3.639507751596	50
0	266	3.645358646027	50
0	266	3.65119558718	50
0	266	3.656742022997	50
0	266	3.662553920798	50
0	266	3.668143467255	50
0	266	3.673916368427	50
0	266	3.679718069971	50
0	266	3.685195993656	50
0	266	3.691393383304	50
0	266	3.697336223122	50
0	267	3.7	50
0	271	3.703341493209	50
0	271	3.709712578141	50
0	271	3.715687080002	50
0	271	3.721205789101	50
0	271	3.727110169116	50
0	271	3.73372346108	50
0	271	3.73956183326	50
0	271	3.74513384964	50
0	271	3.751069891698	50
0	271	3.756594146217	50
0	271	3.762280825725	50
0	271	3.767773060445	50
0	271	3.773916606369	50
0	271	3.780409868087	50
0	271	3.786858409451	50
0	271	3.792992116874	50
0	271	3.798503312699	50
0	272	3.8	50
0	276	3.804335424329	50
0	276	3.810707020722	50
0	276	3.81677306168	50
0	276	3.822324837183	50
0	276	3.828322098968	50
0	276	3.835977975747	50
0	276	3.841947172138	50
0	276	3.848219156613	50
0	276	3.854513079503	50
0	276	3.860337403894	50
0	276	3.866066267393	50
0	276	3.871946326873	50
0	276	3.877842988339	50
0	276	3.884080583015	50
0	276	3.89035355589	50
0	276	3.896579687582	50
0	277	3.9	50
0	281	3.903199324947	50
0	281	3.909446604504	50
0	281	3.915127242722	50
0	281	3.921373336029	50
0	281	3.927195486618	50
0	281	3.933351257612	50
0	281	3.939163328045	50
0	281	3.945907085244	50
0	281	3.951890511546	50
0	281	3.957574905514	50
0	281	3.963090512268	50
0	281	3.969365066244	50
0	281	3.974934432134	50
0	281	3.981089807429	50
0	281	3.987167904919	50
0	281	3.993055079778	50
0	281	3.998863197458	50
0	282	4	50
0	286	4.005522363624	50
0	286	4.011958589012	50
0	289	4.018440272331	50
0	289	4.026421863585	50
0	289	4.034027797838	50
0	289	4.041826927491	50
0	289	4.049199448287	50
0	289	4.056811797563	50
0	289	4.064334581389	50
0	292	4.071760643752	50
0	292	4.079680921568	50
0	295	4.088096402292	50
0	296	4.097657652605	50
0	297	4.1	50
0	301	4.10432818679	50
1	0	0	50
1	0	0.1	50
1	6	0.2	50
1	11	0.3	50
1	16	0.4	50
1	21	0.5	50
1	26	0.52021839912	50
1	28	0.526972102057	50
1	28	0.536847282299	50
1	28	0.544091992383	50
1	28	0.55112253461	50
1	28	0.558279653097	50
1	28	0.565050627251	50
1	31	0.571901791052	50
1	31	0.581598086331	50
1	34	0.589714027393	50
1	34	0.599202816306	50
1	35	0.6	50
1	39	0.607162078785	50
1	39	0.614521769005	50
1	39	0.622056889415	50
1	39	0.628965049556	50
1	39	0.636755790332	50
1	39	0.643602759959	50
1	39	0.650844015799	50
1	39	0.658178538858	50
1	39	0.665430157429	50
1	39	0.672484633422	50
1	39	0.679528005696	50
1	39	0.687191183285	50
1	39	0.693596245104	50
1	40	0.7	50
1	44	0.701152092033	50
1	44	0.70861935938	50
1	44	0.716471538195	50
1	44	0.723715754816	50
1	44	0.730664626477	50
1	44	0.737810642303	50
1	44	0.744460961228	50
1	44	0.75224750783	50
1	44	0.759052531485	50
1	44	0.765995975049	50
1	44	0.773804974498	50
1	44	0.780656385295	50
1	44	0.788332886394	50
1	44	0.795268434545	50
1	45	0.8	50
1	49	0.803874396356	50
1	49	0.811600738312	50
1	49	0.81944822896	50
1	49	0.827768221615	50
1	49	0.835077330518	50
1	52	0.842623307651	50
1	52	0.850360753326	50
1	52	0.860266528825	50
1	52	0.869179679245	50
1	52	0.877861142536	50
1	52	0.886449832601	50
1	52	0.898924147284	50
1	53	0.9	50
1	57	0.906481227607	50
1	57	0.914447398573	50
1	57	0.922164118258	50
1	57	0.929838645504	50
1	57	0.937523782477	50
1	57	0.944681887891	50
1	57	0.952217255297	50
1	58	0.959268769981	50
1	58	0.967955661898	50
1	58	0.975541610091	50
1	59	0.982816422498	50
1	59	0.990761621007	50
1	59	0.998352997826	50
1	60	1	50
1	64	1.006056393472	50
1	64	1.013804448345	50
1	64	1.021901390803	50
1	64	1.029550750889	50
1	64	1.037484352744	50
1	64	1.044295051492	50
1	64	1.052781099063	50
1	64	1.06782557292	50
1	64	1.083301608442	50
1	64	1.098016881777	50
1	65	1.1	50
1	69	1.112959509405	50
1	69	1.128530704978	50
1	69	1.143876602611	50
1	72	1.161191019399	50
1	72	1.17833209064	50
1	72	1.193831273082	50
1	74	1.2	50
1	78	1.201863409254	50
1	78	1.20947945977	50
1	78	1.217156701329	50
1	78	1.224175646374	50
1	78	1.23121507147	50
1	78	1.238695909324	50
1	78	1.245785421744	50
1	78	1.253068623556	50
1	78	1.260633599292	50
1	78	1.267587159119	50
1	78	1.274497046646	50
1	78	1.28191940777	50
1	78	1.289264787023	50
1	78	1.296003931997	50
1	79	1.3	50
1	83	1.303608632856	50
1	83	1.311349285779	50
1	83	1.318665550165	50
1	83	1.325980333632	50
1	83	1.332757723339	50
1	83	1.340653080462	50
1	83	1.347500543552	50
1	83	1.353988262863	50
1	83	1.36111651295	50
1	83	1.368433764263	50
1	83	1.375030294625	50
1	83	1.382034682765	50
1	83	1.389799515921	50
1	83	1.396779970295	50
1	84	1.4	50
1	88	1.404258834295	50
1	88	1.411799629798	50
1	88	1.418960696521	50
1	88	1.426852105937	50
1	88	1.43396949983	50
1	88	1.441400003364	50
1	88	1.448196144678	50
1	88	1.45557631442	50
1	88	1.462049722765	50
1	88	1.469195244599	50
1	88	1.476312391496	50
1	88	1.483995307619	50
1	88	1.491063847582	50
1	88	1.498028017136	50
1	89	1.5	50
1	93	1.505755099552	50
1	93	1.513132061518	50
1	93	1.520493478595	50
1	93	1.527692295529	50
1	93	1.534501267419	50
1	93	1.542027998952	50
1	93	1.549406934771	50
1	93	1.556403920432	50
1	96	1.563684900866	50
1	96	1.574056764406	50
1	96	1.581367106703	50
1	96	1.589339939689	50
1	96	1.596113134693	50
1	97	1.6	50
1	101	1.603739794936	50
1	101	1.61078020643	50
1	101	1.618371829716	50
1	101	1.6254618356	50
1	101	1.63287186014	50
1	101	1.63991621987	50
1	101	1.64724630123	50
1	101	1.654625483517	50
1	101	1.661952604097	50
1	101	1.668519279661	50
1	104	1.676367263773	50
1	104	1.684290008906	50
1	104	1.691421713237	50
1	104	1.69896769037	50
1	105	1.7	50
1	109	1.706635309129	50
1	109	1.714253086502	50
1	109	1.721478551515	50
1	112	1.735714772912	50
1	112	1.755542540918	50
1	112	1.771918047859	50
1	112	1.789788100999	50
1	116	1.8	50
1	120	1.805572827024	50
1	120	1.823131479735	50
1	120	1.834705645243	50
1	120	1.847874842336	50
1	120	1.859856710903	50
1	120	1.872084448719	50
1	120	1.884039275129	50
1	120	1.895643394436	50
1	121	1.9	50
1	128	1.909168290783	50
1	128	1.922607903207	50
1	128	1.936109501956	50
1	131	1.948418363569	50
1	132	1.966767042508	50
1	135	1.98277487925	50
1	135	1.992925418392	50
1	136	2	50
1	140	2.00115707952	50
1	140	2.009415634665	50
1	140	2.017183922065	50
1	140	2.024458981468	50
1	140	2.03225885158	50
1	140	2.039621255584	50
1	140	2.047397438926	50
1	140	2.054871615289	50
1	140	2.062438564879	50
1	140	2.070086691042	50
1	140	2.077963543553	50
1	140	2.085437966383	50
1	140	2.092975554638	50
1	141	2.1	50
1	145	2.101539077542	50
1	145	2.109555336361	50
1	145	2.117027785338	50
1	145	2.124267807784	50
1	145	2.131232964265	50
1	145	2.138809290187	50
1	145	2.146306413389	50
1	145	2.153941462509	50
1	145	2.161026533759	50
1	145	2.169155798331	50
1	145	2.177020560197	50
1	145	2.184720255132	50
1	145	2.19193807067	50
1	146	2.2	50
1	150	2.200542552091	50
1	150	2.207784054928	50
1	150	2.215164471137	50
1	150	2.223148407313	50
1	150	2.230755575489	50
1	150	2.238332887809	50
1	150	2.245931913575	50
1	150	2.253376481608	50
1	150	2.260550377849	50
1	150	2.268018632652	50
1	150	2.275385724822	50
1	150	2.282881861098	50
1	150	2.290505560032	50
1	150	2.298035499341	50
1	151	2.3	50
1	155	2.306381646612	50
1	155	2.314688068761	50
1	155	2.32214472691	50
1	159	2.330948818755	50
1	159	2.339387245789	50
1	160	2.347239671071	50
1	160	2.355811829849	50
1	160	2.363395064258	50
1	160	2.370692083044	50
1	160	2.378104328433	50
1	160	2.385911353499	50
1	160	2.393426488378	50
1	161	2.4	50
1	165	2.401316417933	50
1	165	2.409271239242	50
1	165	2.416415033689	50
1	165	2.423902040628	50
1	165	2.430812174622	50
1	165	2.438034184863	50
1	165	2.445336631746	50
1	165	2.452531254506	50
1	165	2.460047622779	50
1	165	2.467290606006	50
1	165	2.475053218841	50
1	165	2.482811636973	50
1	165	2.489852788926	50
1	165	2.497759249239	50
1	166	2.5	50
1	170	2.505902331314	50
1	170	2.514226272205	50
1	170	2.527614712849	50
1	170	2.539510881035	50
1	170	2.551978663924	50
1	170	2.564513841747	50
1	170	2.576724939059	50
1	170	2.588583664326	50
1	171	2.6	50
1	175	2.600882958095	50
1	175	2.615442918786	50
1	175	2.627690209641	50
1	175	2.640207498476	50
1	175	2.651490448914	50
1	176	2.659351039846	50
1	176	2.667382350091	50
1	176	2.675132625814	50
1	176	2.682858474307	50
1	176	2.690645760839	50
1	176	2.698690394594	50
1	177	2.7	50
1	184	2.707723705721	50
1	184	2.718613224487	50
1	184	2.7258823618	50
1	184	2.733566018383	50
1	184	2.740731032812	50
1	184	2.747954029979	50
1	184	2.755586365315	50
1	184	2.763299383761	50
1	184	2.770401726229	50
1	184	2.778108329651	50
1	184	2.784582231459	50
1	184	2.791982139736	50
1	184	2.799264601089	50
1	185	2.8	50
1	189	2.807789386327	50
1	189	2.815448369213	50
1	189	2.822909715	50
1	189	2.830066340024	50
1	192	2.838123804355	50
1	192	2.846525714043	50
1	192	2.853420303677	50
1	192	2.860855495377	50
1	192	2.868253676796	50
1	192	2.875237585413	50
1	195	2.883414470521	50
1	195	2.891707322163	50
1	195	2.899324606602	50
1	196	2.9	50
1	200	2.906869843275	50
1	200	2.91510841289	50
1	200	2.923229288585	50
1	200	2.930427365588	50
1	200	2.937633831468	50
1	200	2.944935784888	50
1	203	2.952440556508	50
1	206	2.963662677511	50
1	206	2.975191987123	50
1	206	2.98234318405	50
1	206	2.989634280747	50
1	206	2.997005074157	50
1	207	3	50
1	211	3.005357142988	50
1	211	3.013184894573	50
1	211	3.020705704017	50
1	211	3.028542337943	50
1	211	3.036115209622	50
1	211	3.043370529433	50
1	214	3.051142271605	50
1	214	3.059888627179	50
1	214	3.067363050009	50
1	214	3.074811072285	50
1	214	3.082836707437	50
1	214	3.090129777988	50
1	215	3.097440860745	50
1	216	3.1	50
1	220	3.108253891104	50
1	220	3.115733742031	50
1	220	3.124357469052	50
1	220	3.131355442168	50
1	220	3.138994932458	50
1	220	3.146249265871	50
1	220	3.154226046563	50
1	220	3.161405617897	50
1	220	3.169301716008	50
1	220	3.176670041572	50
1	223	3.184510623733	50
1	223	3.194885200528	50
1	224	3.2	50
1	228	3.203262930512	50
1	228	3.211353703884	50
1	228	3.219757587955	50
1	228	3.226881890335	50
1	228	3.234172987032	50
1	228	3.242008140568	50
1	228	3.249194620918	50
1	228	3.256643136657	50
1	228	3.26439785355	50
1	231	3.272083977449	50
1	231	3.279893716828	50
1	231	3.288153505896	50
1	231	3.295275094492	50
1	232	3.3	50
1	236	3.303192164532	50
1	236	3.311322663027	50
1	236	3.318605370847	50
1	236	3.326047224567	50
1	236	3.333374345676	50
1	236	3.341072312696	50
1	236	3.348013782936	50
1	240	3.356395953561	50
1	240	3.36430932289	50
1	240	3.372658183945	50
1	240	3.380253015008	50
1	240	3.387366707662	50
1	240	3.394575394392	50
1	241	3.4	50
1	245	3.402450272521	50
1	245	3.410955318695	50
1	248	3.418546699953	50
1	248	3.425651740568	50
1	248	3.431177247044	50
1	248	3.436866788989	50
1	248	3.443196552064	50
1	248	3.448739767688	50
1	248	3.454495138782	50
1	248	3.460184501657	50
1	248	3.465644358438	50
1	248	3.471097238388	50
1	248	3.476408622307	50
1	248	3.482217658055	50
1	248	3.487662846428	50
1	248	3.493112506568	50
1	248	3.498424606001	50
1	249	3.5	50
1	253	3.504837191859	50
1	253	3.510888434639	50
1	253	3.516073885135	50
1	253	3.521673270093	50
1	253	3.527458335376	50
1	253	3.534153198166	50
1	253	3.540310876054	50
1	253	3.546978905942	50
1	253	3.553075048146	50
1	253	3.558844729507	50
1	253	3.565159287731	50
1	253	3.570889256949	50
1	254	3.576455727525	50
1	254	3.582733435659	50
1	254	3.58828613241	50
1	254	3.594221459338	50
1	254	3.599768610669	50
1	255	3.6	50
1	265	3.606268312007	50
1	265	3.614482425208	50
1	265	3.621020407663	50
1	266	3.626736960814	50
1	266	3.633878493379	50
1	266	3.639507751596	50
1	266	3.645358646027	50
1	266	3.65119558718	50
1	266	3.656742022997	50
1	266	3.662553920798	50
1	266	3.668143467255	50
1	266	3.673916368427	50
1	266	3.679718069971	50
1	266	3.685195993656	50
1	266	3.691393383304	50
1	266	3.697336223122	50
1	267	3.7	50
1	271	3.703341493209	50
1	271	3.709712578141	50
1	271	3.715687080002	50
1	271	3.721205789101	50
1	271	3.727110169116	50
1	271	3.73372346108	50
1	271	3.73956183326	50
1	271	3.74513384964	50
1	271	3.751069891698	50
1	271	3.756594146217	50
1	271	3.762280825725	50
1	271	3.767773060445	50
1	271	3.773916606369	50
1	271	3.780409868087	50
1	271	3.786858409451	50
1	271	3.792992116874	50
1	271	3.798503312699	50
1	272	3.8	50
1	276	3.804335424329	50
1	276	3.810707020722	50
1	276	3.81677306168	50
1	276	3.822324837183	50
1	276	3.828322098968	50
1	276	3.835977975747	50
1	276	3.841947172138	50
1	276	3.848219156613	50
1	276	3.854513079503	50
1	276	3.860337403894	50
1	276	3.866066267393	50
1	276	3.871946326873	50
1	276	3.877842988339	50
1	276	3.884080583015	50
1	276	3.89035355589	50
1	276	3.896579687582	50
1	277	3.9	50
1	281	3.903199324947	50
1	281	3.909446604504	50
1	281	3.915127242722	50
1	281	3.921373336029	50
1	281	3.927195486618	50
1	281	3.933351257612	50
1	281	3.939163328045	50
1	281	3.945907085244	50
1	281	3.951890511546	50
1	281	3.957574905514	50
1	281	3.963090512268	50
1	281	3.969365066244	50
1	281	3.974934432134	50
1	281	3.981089807429	50
1	281	3.987167904919	50
1	281	3.993055079778	50
1	281	3.998863197458	50
1	282	4	50
1	286	4.005522363624	50
1	286	4.011958589012	50
1	289	4.018440272331	50
1	289	4.026421863585	50
1	289	4.034027797838	50
1	289	4.041826927491	50
1	289	4.049199448287	50
1	289	4.056811797563	50
1	289	4.064334581389	50
1	292	4.071760643752	50
1	292	4.079680921568	50
1	295	4.088096402292	50
1	296	4.097657652605	50
1	297	4.1	50
1	301	4.10432818679	50
2	0	0	0
2	0	0.1	0
2	6	0.2	0
2	11	0.3	0
2	16	0.4	0
2	21	0.5	0
2	26	0.52021839912	0
2	28	0.526972102057	0
2	28	0.536847282299	0
2	28	0.544091992383	0
2	28	0.55112253461	0
2	28	0.558279653097	0
2	28	0.565050627251	0
2	31	0.571901791052	0
2	31	0.581598086331	0
2	34	0.589714027393	0
2	34	0.599202816306	0
2	35	0.6	0
2	39	0.607162078785	0
2	39	0.614521769005	0
2	39	0.622056889415	0
2	39	0.628965049556	0
2	39	0.636755790332	0
2	39	0.643602759959	0
2	39	0.650844015799	0
2	39	0.658178538858	0
2	39	0.665430157429	0
2	39	0.672484633422	0
2	39	0.679528005696	0
2	39	0.687191183285	0
2	39	0.693596245104	0
2	40	0.7	0
2	44	0.701152092033	0
2	44	0.70861935938	0
2	44	0.716471538195	0
2	44	0.723715754816	0
2	44	0.730664626477	0
2	44	0.737810642303	0
2	44	0.744460961228	0
2	44	0.75224750783	0
2	44	0.759052531485	0
2	44	0.765995975049	0
2	44	0.773804974498	0
2	44	0.780656385295	0
2	44	0.788332886394	0
2	44	0.795268434545	0
2	45	0.8	0
2	49	0.803874396356	0
2	49	0.811600738312	0
2	49	0.81944822896	0
2	49	0.827768221615	0
2	49	0.835077330518	0
2	52	0.842623307651	0
2	52	0.850360753326	0
2	52	0.860266528825	0
2	52	0.869179679245	0
2	52	0.877861142536	0
2	52	0.886449832601	0
2	52	0.898924147284	0
2	53	0.9	0
2	57	0.906481227607	0
2	57	0.914447398573	0
2	57	0.922164118258	0
2	57	0.929838645504	0
2	57	0.937523782477	0
2	57	0.944681887891	0
2	57	0.952217255297	0
2	58	0.959268769981	0
2	58	0.967955661898	0
2	58	0.975541610091	0
2	59	0.982816422498	0
2	59	0.990761621007	0
2	59	0.998352997826	0
2	60	1	0
2	64	1.006056393472	0
2	64	1.013804448345	0
2	64	1.021901390803	0
2	64	1.029550750889	0
2	64	1.037484352744	0
2	64	1.044295051492	0
2	64	1.052781099063	0
2	64	1.06782557292	0
2	64	1.083301608442	0
2	64	1.098016881777	0
2	65	1.1	0
2	69	1.112959509405	0
2	69	1.128530704978	0
2	69	1.143876602611	0
2	72	1.161191019399	0
2	72	1.17833209064	0
2	72	1.193831273082	0
2	74	1.2	0
2	78	1.201863409254	0
2	78	1.20947945977	0
2	78	1.217156701329	0
2	78	1.224175646374	0
2	78	1.23121507147	0
2	78	1.238695909324	0
2	78	1.245785421744	0
2	78	1.253068623556	0
2	78	1.260633599292	0
2	78	1.267587159119	0
2	78	1.274497046646	0
2	78	1.28191940777	0
2	78	1.289264787023	0
2	78	1.296003931997	0
2	79	1.3	0
2	83	1.303608632856	0
2	83	1.311349285779	0
2	83	1.318665550165	0
2	83	1.325980333632	0
2	83	1.332757723339	0
2	83	1.340653080462	0
2	83	1.347500543552	0
2	83	1.353988262863	0
2	83	1.36111651295	0
2	83	1.368433764263	0
2	83	1.375030294625	0
2	83	1.382034682765	0
2	83	1.389799515921	0
2	83	1.396779970295	0
2	84	1.4	0
2	88	1.404258834295	0
2	88	1.411799629798	0
2	88	1.418960696521	0
2	88	1.426852105937	0
2	88	1.43396949983	0
2	88	1.441400003364	0
2	88	1.448196144678	0
2	88	1.45557631442	0
2	88	1.462049722765	0
2	88	1.469195244599	0
2	88	1.476312391496	0
2	88	1.483995307619	0
2	88	1.491063847582	0
2	88	1.498028017136	0
2	89	1.5	0
2	93	1.505755099552	0
2	93	1.513132061518	0
2	93	1.520493478595	0
2	93	1.527692295529	0
2	93	1.534501267419	0
2	93	1.542027998952	0
2	93	1.549406934771	0
2	93	1.556403920432	0
2	96	1.563684900866	0
2	96	1.574056764406	0
2	96	1.581367106703	0
2	96	1.589339939689	0
2	96	1.596113134693	0
2	97	1.6	0
2	101	1.603739794936	0
2	101	1.61078020643	0
2	101	1.618371829716	0
2	101	1.6254618356	0
2	101	1.63287186014	0
2	101	1.63991621987	0
2	101	1.64724630123	0
2	101	1.654625483517	0
2	101	1.661952604097	0
2	101	1.668519279661	0
2	104	1.676367263773	0
2	104	1.684290008906	0
2	104	1.691421713237	0
2	104	1.69896769037	0
2	105	1.7	0
2	109	1.706635309129	0
2	109	1.714253086502	0
2	109	1.721478551515	0
2	112	1.735714772912	0
2	112	1.755542540918	0
2	112	1.771918047859	0
2	112	1.789788100999	0
2	116	1.8	0
2	120	1.805572827024	0
2	120	1.823131479735	0
2	120	1.834705645243	0
2	120	1.847874842336	0
2	120	1.859856710903	0
2	120	1.872084448719	0
2	120	1.884039275129	0
2	120	1.895643394436	0
2	121	1.9	0
2	128	1.909168290783	0
2	128	1.922607903207	0
2	128	1.936109501956	0
2	131	1.948418363569	0
2	132	1.966767042508	0
2	135	1.98277487925	0
2	135	1.992925418392	0
2	136	2	0
2	140	2.00115707952	0
2	140	2.009415634665	0
2	140	2.017183922065	0
2	140	2.024458981468	0
2	140	2.03225885158	0
2	140	2.039621255584	0
2	140	2.047397438926	0
2	140	2.054871615289	0
2	140	2.062438564879	0
2	140	2.070086691042	0
2	140	2.077963543553	0
2	140	2.085437966383	0
2	140	2.092975554638	0
2	141	2.1	0
2	145	2.101539077542	0
2	145	2.109555336361	0
2	145	2.117027785338	0
2	145	2.124267807784	0
2	145	2.131232964265	0
2	145	2.138809290187	0
2	145	2.146306413389	0
2	145	2.153941462509	0
2	145	2.161026533759	0
2	145	2.169155798331	0
2	145	2.177020560197	0
2	145	2.184720255132	0
2	145	2.19193807067	0
2	146	2.2	0
2	150	2.200542552091	0
2	150	2.207784054928	0
2	150	2.215164471137	0
2	150	2.223148407313	0
2	150	2.230755575489	0
2	150	2.238332887809	0
2	150	2.245931913575	0
2	150	2.253376481608	0
2	150	2.260550377849	0
2	150	2.268018632652	0
2	150	2.275385724822	0
2	150	2.282881861098	0
2	150	2.290505560032	0
2	150	2.298035499341	0
2	151	2.3	0
2	155	2.306381646612	0
2	155	2.314688068761	0
2	155	2.32214472691	0
2	159	2.330948818755	0
2	159	2.339387245789	0
2	160	2.347239671071	0
2	160	2.355811829849	0
2	160	2.363395064258	0
2	160	2.370692083044	0
2	160	2.378104328433	0
2	160	2.385911353499	0
2	160	2.393426488378	0
2	161	2.4	0
2	165	2.401316417933	0
2	165	2.409271239242	0
2	165	2.416415033689	0
2	165	2.423902040628	0
2	165	2.430812174622	0
2	165	2.438034184863	0
2	165	2.445336631746	0
2	165	2.452531254506	0
2	165	2.460047622779	0
2	165	2.467290606006	0
2	165	2.475053218841	0
2	165	2.482811636973	0
2	165	2.489852788926	0
2	165	2.497759249239	0
2	166	2.5	0
2	170	2.505902331314	0
2	170	2.514226272205	0
2	170	2.527614712849	0
2	170	2.539510881035	0
2	170	2.551978663924	0
2	170	2.564513841747	0
2	170	2.576724939059	0
2	170	2.588583664326	0
2	171	2.6	0
2	175	2.600882958095	0
2	175	2.615442918786	0
2	175	2.627690209641	0
2	175	2.640207498476	0
2	175	2.651490448914	0
2	176	2.659351039846	0
2	176	2.667382350091	0
2	176	2.675132625814	0
2	176	2.682858474307	0
2	176	2.690645760839	0
2	176	2.698690394594	0
2	177	2.7	0
2	184	2.707723705721	0
2	184	2.718613224487	0
2	184	2.7258823618	0
2	184	2.733566018383	0
2	184	2.740731032812	0
2	184	2.747954029979	0
2	184	2.755586365315	0
2	184	2.763299383761	0
2	184	2.770401726229	0
2	184	2.778108329651	0
2	184	2.784582231459	0
2	184	2.791982139736	0
2	184	2.799264601089	0
2	185	2.8	0
2	189	2.807789386327	0
2	189	2.815448369213	0
2	189	2.822909715	0
2	189	2.830066340024	0
2	192	2.838123804355	0
2	192	2.846525714043	0
2	192	2.853420303677	0
2	192	2.860855495377	0
2	192	2.868253676796	0
2	192	2.875237585413	0
2	195	2.883414470521	0
2	195	2.891707322163	0
2	195	2.899324606602	0
2	196	2.9	0
2	200	2.906869843275	0
2	200	2.91510841289	0
2	200	2.923229288585	0
2	200	2.930427365588	0
2	200	2.937633831468	0
2	200	2.944935784888	0
2	203	2.952440556508	0
2	206	2.963662677511	0
2	206	2.975191987123	0
2	206	2.98234318405	0
2	206	2.989634280747	0
2	206	2.997005074157	0
2	207	3	0
2	211	3.005357142988	0
2	211	3.013184894573	0
2	211	3.020705704017	0
2	211	3.028542337943	0
2	211	3.036115209622	0
2	211	3.043370529433	0
2	214	3.051142271605	0
2	214	3.059888627179	0
2	214	3.067363050009	0
2	214	3.074811072285	0
2	214	3.082836707437	0
2	214	3.090129777988	0
2	215	3.097440860745	0
2	216	3.1	0
2	220	3.108253891104	0
2	220	3.115733742031	0
2	220	3.124357469052	0
2	220	3.131355442168	0
2	220	3.138994932458	0
2	220	3.146249265871	0
2	220	3.154226046563	0
2	220	3.161405617897	0
2	220	3.169301716008	0
2	220	3.176670041572	0
2	223	3.184510623733	0
2	223	3.194885200528	0
2	224	3.2	0
2	228	3.203262930512	0
2	228	3.211353703884	0
2	228	3.219757587955	0
2	228	3.226881890335	0
2	228	3.234172987032	0
2	228	3.242008140568	0
2	228	3.249194620918	0
2	228	3.256643136657	0
2	228	3.26439785355	0
2	231	3.272083977449	0
2	231	3.279893716828	0
2	231	3.288153505896	0
2	231	3.295275094492	0
2	232	3.3	0
2	236	3.303192164532	0
2	236	3.311322663027	0
2	236	3.318605370847	0
2	236	3.326047224567	0
2	236	3.333374345676	0
2	236	3.341072312696	0
2	236	3.348013782936	0
2	240	3.356395953561	0
2	240	3.36430932289	0
2	240	3.372658183945	0
2	240	3.380253015008	0
2	240	3.387366707662	0
2	240	3.394575394392	0
2	241	3.4	0
2	245	3.402450272521	0
2	245	3.410955318695	0
2	248	3.418546699953	0
2	248	3.425651740568	0
2	248	3.431177247044	0
2	248	3.436866788989	0
2	248	3.443196552064	0
2	248	3.448739767688	0
2	248	3.454495138782	0
2	248	3.460184501657	0
2	248	3.465644358438	0
2	248	3.471097238388	0
2	248	3.476408622307	0
2	248	3.482217658055	0
2	248	3.487662846428	0
2	248	3.493112506568	0
2	248	3.498424606001	0
2	249	3.5	0
2	253	3.504837191859	0
2	253	3.510888434639	0
2	253	3.516073885135	0
2	253	3.521673270093	0
2	253	3.527458335376	0
2	253	3.534153198166	0
2	253	3.540310876054	0
2	253	3.546978905942	0
2	253	3.553075048146	0
2	253	3.558844729507	0
2	253	3.565159287731	0
2	253	3.570889256949	0
2	254	3.576455727525	0
2	254	3.582733435659	0
2	254	3.58828613241	0
2	254	3.594221459338	0
2	254	3.599768610669	0
2	255	3.6	0
2	265	3.606268312007	0
2	265	3.614482425208	0
2	265	3.621020407663	0
2	266	3.626736960814	0
2	266	3.633878493379	0
2	266	3.639507751596	0
2	266	3.645358646027	0
2	266	3.65119558718	0
2	266	3.656742022997	0
2	266	3.662553920798	0
2	266	3.668143467255	0
2	266	3.673916368427	0
2	266	3.679718069971	0
2	266	3.685195993656	0
2	266	3.691393383304	0
2	266	3.697336223122	0
2	267	3.7	0
2	271	3.703341493209	0
2	271	3.709712578141	0
2	271	3.715687080002	0
2	271	3.721205789101	0
2	271	3.727110169116	0
2	271	3.73372346108	0
2	271	3.73956183326	0
2	271	3.74513384964	0
2	271	3.751069891698	0
2	271	3.756594146217	0
2	271	3.762280825725	0
2	271	3.767773060445	0
2	271	3.773916606369	0
2	271	3.780409868087	0
2	271	3.786858409451	0
2	271	3.792992116874	0
2	271	3.798503312699	0
2	272	3.8	0
2	276	3.804335424329	0
2	276	3.810707020722	0
2	276	3.81677306168	0
2	276	3.822324837183	0
2	276	3.828322098968	0
2	276	3.835977975747	0
2	276	3.841947172138	0
2	276	3.848219156613	0
2	276	3.854513079503	0
2	276	3.860337403894	0
2	276	3.866066267393	0
2	276	3.871946326873	0
2	276	3.877842988339	0
2	276	3.884080583015	0
2	276	3.89035355589	0
2	276	3.896579687582	0
2	277	3.9	0
2	281	3.903199324947	0
2	281	3.909446604504	0
2	281	3.915127242722	0
2	281	3.921373336029	0
2	281	3.927195486618	0
2	281	3.933351257612	0
2	281	3.939163328045	0
2	281	3.945907085244	0
2	281	3.951890511546	0
2	281	3.957574905514	0
2	281	3.963090512268	0
2	281	3.969365066244	0
2	281	3.974934432134	0
2	281	3.981089807429	0
2	281	3.987167904919	0
2	281	3.993055079778	0
2	281	3.998863197458	0
2	282	4	0
2	286	4.005522363624	0
2	286	4.011958589012	0
2	289	4.018440272331	0
2	289	4.026421863585	0
2	289	4.034027797838	0
2	289	4.041826927491	0
2	289	4.049199448287	0
2	289	4.056811797563	0
2	289	4.064334581389	0
2	292	4.071760643752	0
2	292	4.079680921568	0
2	295	4.088096402292	0
2	296	4.097657652605	0
2	297	4.1	0
2	301	4.10432818679	0
3	0	0	100
3	0	0.1	100
3	6	0.2	100
3	11	0.3	100
3	16	0.4	100
3	21	0.5	100
3	26	0.52021839912	100
3	28	0.526972102057	100
3	28	0.536847282299	100
3	28	0.544091992383	100
3	28	0.55112253461	100
3	28	0.558279653097	100
3	28	0.565050627251	100
3	31	0.571901791052	100
3	31	0.581598086331	100
3	34	0.589714027393	100
3	34	0.599202816306	100
3	36	0.6	100
3	39	0.607162078785	100
3	39	0.614521769005	100
3	39	0.622056889415	100
3	39	0.628965049556	100
3	39	0.636755790332	100
3	39	0.643602759959	100
3	39	0.650844015799	100
3	39	0.658178538858	100
3	39	0.665430157429	100
3	39	0.672484633422	100
3	39	0.679528005696	100
3	39	0.687191183285	100
3	39	0.693596245104	100
3	41	0.7	100
3	44	0.701152092033	100
3	44	0.70861935938	100
3	44	0.716471538195	100
3	44	0.723715754816	100
3	44	0.730664626477	100
3	44	0.737810642303	100
3	44	0.744460961228	100
3	44	0.75224750783	100
3	44	0.759052531485	100
3	44	0.765995975049	100
3	44	0.773804974498	100
3	44	0.780656385295	100
3	44	0.788332886394	100
3	44	0.795268434545	100
3	46	0.8	100
3	49	0.803874396356	100
3	49	0.811600738312	100
3	49	0.81944822896	100
3	49	0.827768221615	100
3	49	0.835077330518	100
3	52	0.842623307651	100
3	52	0.850360753326	100
3	52	0.860266528825	100
3	52	0.869179679245	100
3	52	0.877861142536	100
3	52	0.886449832601	100
3	52	0.898924147284	100
3	54	0.9	100
3	57	0.906481227607	100
3	57	0.914447398573	100
3	57	0.922164118258	100
3	57	0.929838645504	100
3	57	0.937523782477	100
3	57	0.944681887891	100
3	57	0.952217255297	100
3	58	0.959268769981	100
3	58	0.967955661898	100
3	58	0.975541610091	100
3	59	0.982816422498	100
3	59	0.990761621007	100
3	59	0.998352997826	100
3	61	1	100
3	64	1.006056393472	100
3	64	1.013804448345	100
3	64	1.021901390803	100
3	64	1.029550750889	100
3	64	1.037484352744	100
3	64	1.044295051492	100
3	64	1.052781099063	100
3	64	1.06782557292	100
3	64	1.083301608442	100
3	64	1.098016881777	100
3	66	1.1	100
3	69	1.112959509405	100
3	69	1.128530704978	100
3	69	1.143876602611	100
3	72	1.161191019399	100
3	72	1.17833209064	100
3	72	1.193831273082	100
3	75	1.2	100
3	78	1.201863409254	100
3	78	1.20947945977	100
3	78	1.217156701329	100
3	78	1.224175646374	100
3	78	1.23121507147	100
3	78	1.238695909324	100
3	78	1.245785421744	100
3	78	1.253068623556	100
3	78	1.260633599292	100
3	78	1.267587159119	100
3	78	1.274497046646	100
3	78	1.28191940777	100
3	78	1.289264787023	100
3	78	1.296003931997	100
3	80	1.3	100
3	83	1.303608632856	100
3	83	1.311349285779	100
3	83	1.318665550165	100
3	83	1.325980333632	100
3	83	1.332757723339	100
3	83	1.340653080462	100
3	83	1.347500543552	100
3	83	1.353988262863	100
3	83	1.36111651295	100
3	83	1.368433764263	100
3	83	1.375030294625	100
3	83	1.382034682765	100
3	83	1.389799515921	100
3	83	1.396779970295	100
3	85	1.4	100
3	88	1.404258834295	100
3	88	1.411799629798	100
3	88	1.418960696521	100
3	88	1.426852105937	100
3	88	1.43396949983	100
3	88	1.441400003364	100
3	88	1.448196144678	100
3	88	1.45557631442	100
3	88	1.462049722765	100
3	88	1.469195244599	100
3	88	1.476312391496	100
3	88	1.483995307619	100
3	88	1.491063847582	100
3	88	1.498028017136	100
3	90	1.5	100
3	93	1.505755099552	100
3	93	1.513132061518	100
3	93	1.520493478595	100
3	93	1.527692295529	100
3	93	1.534501267419	100
3	93	1.542027998952	100
3	93	1.549406934771	100
3	93	1.556403920432	100
3	96	1.563684900866	100
3	96	1.574056764406	100
3	96	1.581367106703	100
3	96	1.589339939689	100
3	96	1.596113134693	100
3	98	1.6	100
3	101	1.603739794936	100
3	101	1.61078020643	100
3	101	1.618371829716	100
3	101	1.6254618356	100
3	101	1.63287186014	100
3	101	1.63991621987	100
3	101	1.64724630123	100
3	101	1.654625483517	100
3	101	1.661952604097	100
3	101	1.668519279661	100
3	104	1.676367263773	100
3	104	1.684290008906	100
3	104	1.691421713237	100
3	104	1.69896769037	100
3	106	1.7	100
3	109	1.706635309129	100
3	109	1.714253086502	100
3	109	1.721478551515	100
3	112	1.735714772912	100
3	112	1.755542540918	100
3	112	1.771918047859	100
3	112	1.789788100999	100
3	117	1.8	100
3	120	1.805572827024	100
3	120	1.823131479735	100
3	120	1.834705645243	100
3	120	1.847874842336	100
3	120	1.859856710903	100
3	120	1.872084448719	100
3	120	1.884039275129	100
3	120	1.895643394436	100
3	122	1.9	100
3	128	1.909168290783	100
3	128	1.922607903207	100
3	128	1.936109501956	100
3	131	1.948418363569	100
3	132	1.966767042508	100
3	135	1.98277487925	100
3	135	1.992925418392	100
3	137	2	100
3	140	2.00115707952	100
3	140	2.009415634665	100
3	140	2.017183922065	100
3	140	2.024458981468	100
3	140	2.03225885158	100
3	140	2.039621255584	100
3	140	2.047397438926	100
3	140	2.054871615289	100
3	140	2.062438564879	100
3	140	2.070086691042	100
3	140	2.077963543553	100
3	140	2.085437966383	100
3	140	2.092975554638	100
3	142	2.1	100
3	145	2.101539077542	100
3	145	2.109555336361	100
3	145	2.117027785338	100
3	145	2.124267807784	100
3	145	2.131232964265	100
3	145	2.138809290187	100
3	145	2.146306413389	100
3	145	2.153941462509	100
3	145	2.161026533759	100
3	145	2.169155798331	100
3	145	2.177020560197	100
3	145	2.184720255132	100
3	145	2.19193807067	100
3	147	2.2	100
3	150	2.200542552091	100
3	150	2.207784054928	100
3	150	2.215164471137	100
3	150	2.223148407313	100
3	150	2.230755575489	100
3	150	2.238332887809	100
3	150	2.245931913575	100
3	150	2.253376481608	100
3	150	2.260550377849	100
3	150	2.268018632652	100
3	150	2.275385724822	100
3	150	2.282881861098	100
3	150	2.290505560032	100
3	150	2.298035499341	100
3	152	2.3	100
3	155	2.306381646612	100
3	155	2.314688068761	100
3	155	2.32214472691	100
3	159	2.330948818755	100
3	159	2.339387245789	100
3	160	2.347239671071	100
3	160	2.355811829849	100
3	160	2.363395064258	100
3	160	2.370692083044	100
3	160	2.378104328433	100
3	160	2.385911353499	100
3	160	2.393426488378	100
3	162	2.4	100
3	165	2.401316417933	100
3	165	2.409271239242	100
3	165	2.416415033689	100
3	165	2.423902040628	100
3	165	2.430812174622	100
3	165	2.438034184863	100
3	165	2.445336631746	100
3	165	2.452531254506	100
3	165	2.460047622779	100
3	165	2.467290606006	100
3	165	2.475053218841	100
3	165	2.482811636973	100
3	165	2.489852788926	100
3	165	2.497759249239	100
3	167	2.5	100
3	170	2.505902331314	100
3	170	2.514226272205	100
3	170	2.527614712849	100
3	170	2.539510881035	100
3	170	2.551978663924	100
3	170	2.564513841747	100
3	170	2.576724939059	100
3	170	2.588583664326	100
3	172	2.6	100
3	175	2.600882958095	100
3	175	2.615442918786	100
3	175	2.627690209641	100
3	175	2.640207498476	100
3	175	2.651490448914	100
3	176	2.659351039846	100
3	176	2.667382350091	100
3	176	2.675132625814	100
3	176	2.682858474307	100
3	176	2.690645760839	100
3	176	2.698690394594	100
3	178	2.7	100
3	184	2.707723705721	100
3	184	2.718613224487	100
3	184	2.7258823618	100
3	184	2.733566018383	100
3	184	2.740731032812	100
3	184	2.747954029979	100
3	184	2.755586365315	100
3	184	2.763299383761	100
3	184	2.770401726229	100
3	184	2.778108329651	100
3	184	2.784582231459	100
3	184	2.791982139736	100
3	184	2.799264601089	100
3	186	2.8	100
3	189	2.807789386327	100
3	189	2.815448369213	100
3	189	2.822909715	100
3	189	2.830066340024	100
3	192	2.838123804355	100
3	192	2.846525714043	100
3	192	2.853420303677	100
3	192	2.860855495377	100
3	192	2.868253676796	100
3	192	2.875237585413	100
3	195	2.883414470521	100
3	195	2.891707322163	100
3	195	2.899324606602	100
3	197	2.9	100
3	200	2.906869843275	100
3	200	2.91510841289	100
3	200	2.923229288585	100
3	200	2.930427365588	100
3	200	2.937633831468	100
3	200	2.944935784888	100
3	203	2.952440556508	100
3	206	2.963662677511	100
3	206	2.975191987123	100
3	206	2.98234318405	100
3	206	2.989634280747	100
3	206	2.997005074157	100
3	208	3	100
3	211	3.005357142988	100
3	211	3.013184894573	100
3	211	3.020705704017	100
3	211	3.028542337943	100
3	211	3.036115209622	100
3	211	3.043370529433	100
3	214	3.051142271605	100
3	214	3.059888627179	100
3	214	3.067363050009	100
3	214	3.074811072285	100
3	214	3.082836707437	100
3	214	3.090129777988	100
3	215	3.097440860745	100
3	217	3.1	100
3	220	3.108253891104	100
3	220	3.115733742031	100
3	220	3.124357469052	100
3	220	3.131355442168	100
3	220	3.138994932458	100
3	220	3.146249265871	100
3	220	3.154226046563	100
3	220	3.161405617897	100
3	220	3.169301716008	100
3	220	3.176670041572	100
3	223	3.184510623733	100
3	223	3.194885200528	100
3	225	3.2	100
3	228	3.203262930512	100
3	228	3.211353703884	100
3	228	3.219757587955	100
3	228	3.226881890335	100
3	228	3.234172987032	100
3	228	3.242008140568	100
3	228	3.249194620918	100
3	228	3.256643136657	100
3	228	3.26439785355	100
3	231	3.272083977449	100
3	231	3.279893716828	100
3	231	3.288153505896	100
3	231	3.295275094492	100
3	233	3.3	100
3	236	3.303192164532	100
3	236	3.311322663027	100
3	236	3.318605370847	100
3	236	3.326047224567	100
3	236	3.333374345676	100
3	236	3.341072312696	100
3	236	3.348013782936	100
3	240	3.356395953561	100
3	240	3.36430932289	100
3	240	3.372658183945	100
3	240	3.380253015008	100
3	240	3.387366707662	100
3	240	3.394575394392	100
3	242	3.4	100
3	245	3.402450272521	100
3	245	3.410955318695	100
3	248	3.418546699953	100
3	248	3.425651740568	100
3	248	3.431177247044	100
3	248	3.436866788989	100
3	248	3.443196552064	100
3	248	3.448739767688	100
3	248	3.454495138782	100
3	248	3.460184501657	100
3	248	3.465644358438	100
3	248	3.471097238388	100
3	248	3.476408622307	100
3	248	3.482217658055	100
3	248	3.487662846428	100
3	248	3.493112506568	100
3	248	3.498424606001	100
3	250	3.5	100
3	253	3.504837191859	100
3	253	3.510888434639	100
3	253	3.516073885135	100
3	253	3.521673270093	100
3	253	3.527458335376	100
3	253	3.534153198166	100
3	253	3.540310876054	100
3	253	3.546978905942	100
3	253	3.553075048146	100
3	253	3.558844729507	100
3	253	3.565159287731	100
3	253	3.570889256949	100
3	254	3.576455727525	100
3	254	3.582733435659	100
3	254	3.58828613241	100
3	254	3.594221459338	100
3	254	3.599768610669	100
3	256	3.6	100
3	265	3.606268312007	100
3	265	3.614482425208	100
3	265	3.621020407663	100
3	266	3.626736960814	100
3	266	3.633878493379	100
3	266	3.639507751596	100
3	266	3.645358646027	100
3	266	3.65119558718	100
3	266	3.656742022997	100
3	266	3.662553920798	100
3	266	3.668143467255	100
3	266	3.673916368427	100
3	266	3.679718069971	100
3	266	3.685195993656	100
3	266	3.691393383304	100
3	266	3.697336223122	100
3	268	3.7	100
3	271	3.703341493209	100
3	271	3.709712578141	100
3	271	3.715687080002	100
3	271	3.721205789101	100
3	271	3.727110169116	100
3	271	3.73372346108	100
3	271	3.73956183326	100
3	271	3.74513384964	100
3	271	3.751069891698	100
3	271	3.756594146217	100
3	271	3.762280825725	100
3	271	3.767773060445	100
3	271	3.773916606369	100
3	271	3.780409868087	100
3	271	3.786858409451	100
3	271	3.792992116874	100
3	271	3.798503312699	100
3	273	3.8	100
3	276	3.804335424329	100
3	276	3.810707020722	100
3	276	3.81677306168	100
3	276	3.822324837183	100
3	276	3.828322098968	100
3	276	3.835977975747	100
3	276	3.841947172138	100
3	276	3.848219156613	100
3	276	3.854513079503	100
3	276	3.860337403894	100
3	276	3.866066267393	100
3	276	3.871946326873	100
3	276	3.877842988339	100
3	276	3.884080583015	100
3	276	3.89035355589	100
3	276	3.896579687582	100
3	278	3.9	100
3	281	3.903199324947	100
3	281	3.909446604504	100
3	281	3.915127242722	100
3	281	3.921373336029	100
3	281	3.927195486618	100
3	281	3.933351257612	100
3	281	3.939163328045	100
3	281	3.945907085244	100
3	281	3.951890511546	100
3	281	3.957574905514	100
3	281	3.963090512268	100
3	281	3.969365066244	100
3	281	3.974934432134	100
3	281	3.981089807429	100
3	281	3.987167904919	100
3	281	3.993055079778	100
3	281	3.998863197458	100
3	283	4	100
3	286	4.005522363624	100
3	286	4.011958589012	100
3	289	4.018440272331	100
3	289	4.026421863585	100
3	289	4.034027797838	100
3	289	4.041826927491	100
3	289	4.049199448287	100
3	289	4.056811797563	100
3	289	4.064334581389	100
3	292	4.071760643752	100
3	292	4.079680921568	100
3	295	4.088096402292	100
3	296	4.097657652605	100
3	298	4.1	100
3	301	4.10432818679	100
4	0	0	100
4	0	0.1	100
4	6	0.2	100
4	11	0.3	100
4	16	0.4	100
4	21	0.5	100
4	26	0.52021839912	100
4	28	0.526972102057	100
4	28	0.536847282299	100
4	28	0.544091992383	100
4	28	0.55112253461	100
4	28	0.558279653097	100
4	28	0.565050627251	100
4	31	0.571901791052	100
4	31	0.581598086331	100
4	34	0.589714027393	100
4	34	0.599202816306	100
4	36	0.6	100
4	39	0.607162078785	100
4	39	0.614521769005	100
4	39	0.622056889415	100
4	39	0.628965049556	100
4	39	0.636755790332	100
4	39	0.643602759959	100
4	39	0.650844015799	100
4	39	0.658178538858	100
4	39	0.665430157429	100
4	39	0.672484633422	100
4	39	0.679528005696	100
4	39	0.687191183285	100
4	39	0.693596245104	100
4	41	0.7	100
4	44	0.701152092033	100
4	44	0.70861935938	100
4	44	0.716471538195	100
4	44	0.723715754816	100
4	44	0.730664626477	100
4	44	0.737810642303	100
4	44	0.744460961228	100
4	44	0.75224750783	100
4	44	0.759052531485	100
4	44	0.765995975049	100
4	44	0.773804974498	100
4	44	0.780656385295	100
4	44	0.788332886394	100
4	44	0.795268434545	100
4	46	0.8	100
4	49	0.803874396356	100
4	49	0.811600738312	100
4	49	0.81944822896	100
4	49	0.827768221615	100
4	49	0.835077330518	100
4	52	0.842623307651	100
4	52	0.850360753326	100
4	52	0.860266528825	100
4	52	0.869179679245	100
4	52	0.877861142536	100
4	52	0.886449832601	100
4	52	0.898924147284	100
4	54	0.9	100
4	57	0.906481227607	100
4	57	0.914447398573	100
4	57	0.922164118258	100
4	57	0.929838645504	100
4	57	0.937523782477	100
4	57	0.944681887891	100
4	57	0.952217255297	100
4	58	0.959268769981	100
4	58	0.967955661898	100
4	58	0.975541610091	100
4	59	0.982816422498	100
4	59	0.990761621007	100
4	59	0.998352997826	100
4	61	1	100
4	64	1.006056393472	100
4	64	1.013804448345	100
4	64	1.021901390803	100
4	64	1.029550750889	100
4	64	1.037484352744	100
4	64	1.044295051492	100
4	64	1.052781099063	100
4	64	1.06782557292	100
4	64	1.083301608442	100
4	64	1.098016881777	100
4	66	1.1	100
4	69	1.112959509405	100
4	69	1.128530704978	100
4	69	1.143876602611	100
4	72	1.161191019399	100
4	72	1.17833209064	100
4	72	1.193831273082	100
4	75	1.2	100
4	78	1.201863409254	100
4	78	1.20947945977	100
4	78	1.217156701329	100
4	78	1.224175646374	100
4	78	1.23121507147	100
4	78	1.238695909324	100
4	78	1.245785421744	100
4	78	1.253068623556	100
4	78	1.260633599292	100
4	78	1.267587159119	100
4	78	1.274497046646	100
4	78	1.28191940777	100
4	78	1.289264787023	100
4	78	1.296003931997	100
4	80	1.3	100
4	83	1.303608632856	100
4	83	1.311349285779	100
4	83	1.318665550165	100
4	83	1.325980333632	100
4	83	1.332757723339	100
4	83	1.340653080462	100
4	83	1.347500543552	100
4	83	1.353988262863	100
4	83	1.36111651295	100
4	83	1.368433764263	100
4	83	1.375030294625	100
4	83	1.382034682765	100
4	83	1.389799515921	100
4	83	1.396779970295	100
4	85	1.4	100
4	88	1.404258834295	100
4	88	1.411799629798	100
4	88	1.418960696521	100
4	88	1.426852105937	100
4	88	1.43396949983	100
4	88	1.441400003364	100
4	88	1.448196144678	100
4	88	1.45557631442	100
4	88	1.462049722765	100
4	88	1.469195244599	100
4	88	1.476312391496	100
4	88	1.483995307619	100
4	88	1.491063847582	100
4	88	1.498028017136	100
4	90	1.5	100
4	93	1.505755099552	100
4	93	1.513132061518	100
4	93	1.520493478595	100
4	93	1.527692295529	100
4	93	1.534501267419	100
4	93	1.542027998952	100
4	93	1.549406934771	100
4	93	1.556403920432	100
4	96	1.563684900866	100
4	96	1.574056764406	100
4	96	1.581367106703	100
4	96	1.589339939689	100
4	96	1.596113134693	100
4	98	1.6	100
4	101	1.603739794936	100
4	101	1.61078020643	100
4	101	1.618371829716	100
4	101	1.6254618356	100
4	101	1.63287186014	100
4	101	1.63991621987	100
4	101	1.64724630123	100
4	101	1.654625483517	100
4	101	1.661952604097	100
4	101	1.668519279661	100
4	104	1.676367263773	100
4	104	1.684290008906	100
4	104	1.691421713237	100
4	104	1.69896769037	100
4	106	1.7	100
4	109	1.706635309129	100
4	109	1.714253086502	100
4	109	1.721478551515	100
4	112	1.735714772912	100
4	112	1.755542540918	100
4	112	1.771918047859	100
4	112	1.789788100999	100
4	117	1.8	100
4	120	1.805572827024	100
4	120	1.823131479735	100
4	120	1.834705645243	100
4	120	1.847874842336	100
4	120	1.859856710903	100
4	120	1.872084448719	100
4	120	1.884039275129	100
4	120	1.895643394436	100
4	122	1.9	100
4	128	1.909168290783	100
4	128	1.922607903207	100
4	128	1.936109501956	100
4	131	1.948418363569	100
4	132	1.966767042508	100
4	135	1.98277487925	100
4	135	1.992925418392	100
4	137	2	100
4	140	2.00115707952	100
4	140	2.009415634665	100
4	140	2.017183922065	100
4	140	2.024458981468	100
4	140	2.03225885158	100
4	140	2.039621255584	100
4	140	2.047397438926	100
4	140	2.054871615289	100
4	140	2.062438564879	100
4	140	2.070086691042	100
4	140	2.077963543553	100
4	140	2.085437966383	100
4	140	2.092975554638	100
4	142	2.1	100
4	145	2.101539077542	100
4	145	2.109555336361	100
4	145	2.117027785338	100
4	145	2.124267807784	100
4	145	2.131232964265	100
4	145	2.138809290187	100
4	145	2.146306413389	100
4	145	2.153941462509	100
4	145	2.161026533759	100
4	145	2.169155798331	100
4	145	2.177020560197	100
4	145	2.184720255132	100
4	145	2.19193807067	100
4	147	2.2	100
4	150	2.200542552091	100
4	150	2.207784054928	100
4	150	2.215164471137	100
4	150	2.223148407313	100
4	150	2.230755575489	100
4	150	2.238332887809	100
4	150	2.245931913575	100
4	150	2.253376481608	100
4	150	2.260550377849	100
4	150	2.268018632652	100
4	150	2.275385724822	100
4	150	2.282881861098	100
4	150	2.290505560032	100
4	150	2.298035499341	100
4	152	2.3	100
4	155	2.306381646612	100
4	155	2.314688068761	100
4	155	2.32214472691	100
4	159	2.330948818755	100
4	159	2.339387245789	100
4	160	2.347239671071	100
4	160	2.355811829849	100
4	160	2.363395064258	100
4	160	2.370692083044	100
4	160	2.378104328433	100
4	160	2.385911353499	100
4	160	2.393426488378	100
4	162	2.4	100
4	165	2.401316417933	100
4	165	2.409271239242	100
4	165	2.416415033689	100
4	165	2.423902040628	100
4	165	2.430812174622	100
4	165	2.438034184863	100
4	165	2.445336631746	100
4	165	2.452531254506	100
4	165	2.460047622779	100
4	165	2.467290606006	100
4	165	2.475053218841	100
4	165	2.482811636973	100
4	165	2.489852788926	100
4	165	2.497759249239	100
4	167	2.5	100
4	170	2.505902331314	100
4	170	2.514226272205	100
4	170	2.527614712849	100
4	170	2.539510881035	100
4	170	2.551978663924	100
4	170	2.564513841747	100
4	170	2.576724939059	100
4	170	2.588583664326	100
4	172	2.6	100
4	175	2.600882958095	100
4	175	2.615442918786	100
4	175	2.627690209641	100
4	175	2.640207498476	100
4	175	2.651490448914	100
4	176	2.659351039846	100
4	176	2.667382350091	100
4	176	2.675132625814	100
4	176	2.682858474307	100
4	176	2.690645760839	100
4	176	2.698690394594	100
4	178	2.7	100
4	184	2.707723705721	100
4	184	2.718613224487	100
4	184	2.7258823618	100
4	184	2.733566018383	100
4	184	2.740731032812	100
4	184	2.747954029979	100
4	184	2.755586365315	100
4	184	2.763299383761	100
4	184	2.770401726229	100
4	184	2.778108329651	100
4	184	2.784582231459	100
4	184	2.791982139736	100
4	184	2.799264601089	100
4	186	2.8	100
4	189	2.807789386327	100
4	189	2.815448369213	100
4	189	2.822909715	100
4	189	2.830066340024	100
4	192	2.838123804355	100
4	192	2.846525714043	100
4	192	2.853420303677	100
4	192	2.860855495377	100
4	192	2.868253676796	100
4	192	2.875237585413	100
4	195	2.883414470521	100
4	195	2.891707322163	100
4	195	2.899324606602	100
4	197	2.9	100
4	200	2.906869843275	100
4	200	2.91510841289	100
4	200	2.923229288585	100
4	200	2.930427365588	100
4	200	2.937633831468	100
4	200	2.944935784888	100
4	203	2.952440556508	100
4	206	2.963662677511	100
4	206	2.975191987123	100
4	206	2.98234318405	100
4	206	2.989634280747	100
4	206	2.997005074157	100
4	208	3	100
4	211	3.005357142988	100
4	211	3.013184894573	100
4	211	3.020705704017	100
4	211	3.028542337943	100
4	211	3.036115209622	100
4	211	3.043370529433	100
4	214	3.051142271605	100
4	214	3.059888627179	100
4	214	3.067363050009	100
4	214	3.074811072285	100
4	214	3.082836707437	100
4	214	3.090129777988	100
4	215	3.097440860745	100
4	217	3.1	100
4	220	3.108253891104	100
4	220	3.115733742031	100
4	220	3.124357469052	100
4	220	3.131355442168	100
4	220	3.138994932458	100
4	220	3.146249265871	100
4	220	3.154226046563	100
4	220	3.161405617897	100
4	220	3.169301716008	100
4	220	3.176670041572	100
4	223	3.184510623733	100
4	223	3.194885200528	100
4	225	3.2	100
4	228	3.203262930512	100
4	228	3.211353703884	100
4	228	3.219757587955	100
4	228	3.226881890335	100
4	228	3.234172987032	100
4	228	3.242008140568	100
4	228	3.249194620918	100
4	228	3.256643136657	100
4	228	3.26439785355	100
4	231	3.272083977449	100
4	231	3.279893716828	100
4	231	3.288153505896	100
4	231	3.295275094492	100
4	233	3.3	100
4	236	3.303192164532	100
4	236	3.311322663027	100
4	236	3.318605370847	100
4	236	3.326047224567	100
4	236	3.333374345676	100
4	236	3.341072312696	100
4	236	3.348013782936	100
4	240	3.356395953561	100
4	240	3.36430932289	100
4	240	3.372658183945	100
4	240	3.380253015008	100
4	240	3.387366707662	100
4	240	3.394575394392	100
4	242	3.4	100
4	245	3.402450272521	100
4	245	3.410955318695	100
4	248	3.418546699953	100
4	248	3.425651740568	100
4	248	3.431177247044	100
4	248	3.436866788989	100
4	248	3.443196552064	100
4	248	3.448739767688	100
4	248	3.454495138782	100
4	248	3.460184501657	100
4	248	3.465644358438	100
4	248	3.471097238388	100
4	248	3.476408622307	100
4	248	3.482217658055	100
4	248	3.487662846428	100
4	248	3.493112506568	100
4	248	3.498424606001	100
4	250	3.5	100
4	253	3.504837191859	100
4	253	3.510888434639	100
4	253	3.516073885135	100
4	253	3.521673270093	100
4	253	3.527458335376	100
4	253	3.534153198166	100
4	253	3.540310876054	100
4	253	3.546978905942	100
4	253	3.553075048146	100
4	253	3.558844729507	100
4	253	3.565159287731	100
4	253	3.570889256949	100
4	254	3.576455727525	100
4	254	3.582733435659	100
4	254	3.58828613241	100
4	254	3.594221459338	100
4	254	3.599768610669	100
4	256	3.6	100
4	265	3.606268312007	100
4	265	3.614482425208	100
4	265	3.621020407663	100
4	266	3.626736960814	100
4	266	3.633878493379	100
4	266	3.639507751596	100
4	266	3.645358646027	100
4	266	3.65119558718	100
4	266	3.656742022997	100
4	266	3.662553920798	100
4	266	3.668143467255	100
4	266	3.673916368427	100
4	266	3.679718069971	100
4	266	3.685195993656	100
4	266	3.691393383304	100
4	266	3.697336223122	100
4	268	3.7	100
4	271	3.703341493209	100
4	271	3.709712578141	100
4	271	3.715687080002	100
4	271	3.721205789101	100
4	271	3.727110169116	100
4	271	3.73372346108	100
4	271	3.73956183326	100
4	271	3.74513384964	100
4	271	3.751069891698	100
4	271	3.756594146217	100
4	271	3.762280825725	100
4	271	3.767773060445	100
4	271	3.773916606369	100
4	271	3.780409868087	100
4	271	3.786858409451	100
4	271	3.792992116874	100
4	271	3.798503312699	100
4	273	3.8	100
4	276	3.804335424329	100
4	276	3.810707020722	100
4	276	3.81677306168	100
4	276	3.822324837183	100
4	276	3.828322098968	100
4	276	3.835977975747	100
4	276	3.841947172138	100
4	276	3.848219156613	100
4	276	3.854513079503	100
4	276	3.860337403894	100
4	276	3.866066267393	100
4	276	3.871946326873	100
4	276	3.877842988339	100
4	276	3.884080583015	100
4	276	3.89035355589	100
4	276	3.896579687582	100
4	278	3.9	100
4	281	3.903199324947	100
4	281	3.909446604504	100
4	281	3.915127242722	100
4	281	3.921373336029	100
4	281	3.927195486618	100
4	281	3.933351257612	100
4	281	3.939163328045	100
4	281	3.945907085244	100
4	281	3.951890511546	100
4	281	3.957574905514	100
4	281	3.963090512268	100
4	281	3.969365066244	100
4	281	3.974934432134	100
4	281	3.981089807429	100
4	281	3.987167904919	100
4	281	3.993055079778	100
4	281	3.998863197458	100
4	283	4	100
4	286	4.005522363624	100
4	286	4.011958589012	100
4	289	4.018440272331	100
4	289	4.026421863585	100
4	289	4.034027797838	100
4	289	4.041826927491	100
4	289	4.049199448287	100
4	289	4.056811797563	100
4	289	4.064334581389	100
4	292	4.071760643752	100
4	292	4.079680921568	100
4	295	4.088096402292	100
4	296	4.097657652605	100
4	298	4.1	100
4	301	4.10432818679	100
5	0	0	0
5	0	0.1	0
5	6	0.2	0
5	11	0.3	0
5	16	0.4	0
5	21	0.5	0
5	26	0.52021839912	0
5	28	0.526972102057	0
5	28	0.536847282299	0
5	28	0.544091992383	0
5	28	0.55112253461	0
5	28	0.558279653097	0
5	28	0.565050627251	0
5	31	0.571901791052	0
5	31	0.581598086331	0
5	34	0.589714027393	0
5	34	0.599202816306	0
5	36	0.6	0
5	39	0.607162078785	0
5	39	0.614521769005	0
5	39	0.622056889415	0
5	39	0.628965049556	0
5	39	0.636755790332	0
5	39	0.643602759959	0
5	39	0.650844015799	0
5	39	0.658178538858	0
5	39	0.665430157429	0
5	39	0.672484633422	0
5	39	0.679528005696	0
5	39	0.687191183285	0
5	39	0.693596245104	0
5	41	0.7	0
5	44	0.701152092033	0
5	44	0.70861935938	0
5	44	0.716471538195	0
5	44	0.723715754816	0
5	44	0.730664626477	0
5	44	0.737810642303	0
5	44	0.744460961228	0
5	44	0.75224750783	0
5	44	0.759052531485	0
5	44	0.765995975049	0
5	44	0.773804974498	0
5	44	0.780656385295	0
5	44	0.788332886394	0
5	44	0.795268434545	0
5	46	0.8	0
5	49	0.803874396356	0
5	49	0.811600738312	0
5	49	0.81944822896	0
5	49	0.827768221615	0
5	49	0.835077330518	0
5	52	0.842623307651	0
5	52	0.850360753326	0
5	52	0.860266528825	0
5	52	0.869179679245	0
5	52	0.877861142536	0
5	52	0.886449832601	0
5	52	0.898924147284	0
5	54	0.9	0
5	57	0.906481227607	0
5	57	0.914447398573	0
5	57	0.922164118258	0
5	57	0.929838645504	0
5	57	0.937523782477	0
5	57	0.944681887891	0
5	57	0.952217255297	0
5	58	0.959268769981	0
5	58	0.967955661898	0
5	58	0.975541610091	0
5	59	0.982816422498	0
5	59	0.990761621007	0
5	59	0.998352997826	0
5	61	1	0
5	64	1.006056393472	0
5	64	1.013804448345	0
5	64	1.021901390803	0
5	64	1.029550750889	0
5	64	1.037484352744	0
5	64	1.044295051492	0
5	64	1.052781099063	0
5	64	1.06782557292	0
5	64	1.083301608442	0
5	64	1.098016881777	0
5	66	1.1	0
5	69	1.112959509405	0
5	69	1.128530704978	0
5	69	1.143876602611	0
5	72	1.161191019399	0
5	72	1.17833209064	0
5	72	1.193831273082	0
5	75	1.2	0
5	78	1.201863409254	0
5	78	1.20947945977	0
5	78	1.217156701329	0
5	78	1.224175646374	0
5	78	1.23121507147	0
5	78	1.238695909324	0
5	78	1.245785421744	0
5	78	1.253068623556	0
5	78	1.260633599292	0
5	78	1.267587159119	0
5	78	1.274497046646	0
5	78	1.28191940777	0
5	78	1.289264787023	0
5	78	1.296003931997	0
5	80	1.3	0
5	83	1.303608632856	0
5	83	1.311349285779	0
5	83	1.318665550165	0
5	83	1.325980333632	0
5	83	1.332757723339	0
5	83	1.340653080462	0
5	83	1.347500543552	0
5	83	1.353988262863	0
5	83	1.36111651295	0
5	83	1.368433764263	0
5	83	1.375030294625	0
5	83	1.382034682765	0
5	83	1.389799515921	0
5	83	1.396779970295	0
5	85	1.4	0
5	88	1.404258834295	0
5	88	1.411799629798	0
5	88	1.418960696521	0
5	88	1.426852105937	0
5	88	1.43396949983	0
5	88	1.441400003364	0
5	88	1.448196144678	0
5	88	1.45557631442	0
5	88	1.462049722765	0
5	88	1.469195244599	0
5	88	1.476312391496	0
5	88	1.483995307619	0
5	88	1.491063847582	0
5	88	1.498028017136	0
5	90	1.5	0
5	93	1.505755099552	0
5	93	1.513132061518	0
5	93	1.520493478595	0
5	93	1.527692295529	0
5	93	1.534501267419	0
5	93	1.542027998952	0
5	93	1.549406934771	0
5	93	1.556403920432	0
5	96	1.563684900866	0
5	96	1.574056764406	0
5	96	1.581367106703	0
5	96	1.589339939689	0
5	96	1.596113134693	0
5	98	1.6	0
5	101	1.603739794936	0
5	101	1.61078020643	0
5	101	1.618371829716	0
5	101	1.6254618356	0
5	101	1.63287186014	0
5	101	1.63991621987	0
5	101	1.64724630123	0
5	101	1.654625483517	0
5	101	1.661952604097	0
5	101	1.668519279661	0
5	104	1.676367263773	0
5	104	1.684290008906	0
5	104	1.691421713237	0
5	104	1.69896769037	0
5	106	1.7	0
5	109	1.706635309129	0
5	109	1.714253086502	0
5	109	1.721478551515	0
5	112	1.735714772912	0
5	112	1.755542540918	0
5	112	1.771918047859	0
5	112	1.789788100999	0
5	117	1.8	0
5	120	1.805572827024	0
5	120	1.823131479735	0
5	120	1.834705645243	0
5	120	1.847874842336	0
5	120	1.859856710903	0
5	120	1.872084448719	0
5	120	1.884039275129	0
5	120	1.895643394436	0
5	122	1.9	0
5	128	1.909168290783	0
5	128	1.922607903207	0
5	128	1.936109501956	0
5	131	1.948418363569	0
5	132	1.966767042508	0
5	135	1.98277487925	0
5	135	1.992925418392	0
5	137	2	0
5	140	2.00115707952	0
5	140	2.009415634665	0
5	140	2.017183922065	0
5	140	2.024458981468	0
5	140	2.03225885158	0
5	140	2.039621255584	0
5	140	2.047397438926	0
5	140	2.054871615289	0
5	140	2.062438564879	0
5	140	2.070086691042	0
5	140	2.077963543553	0
5	140	2.085437966383	0
5	140	2.092975554638	0
5	142	2.1	0
5	145	2.101539077542	0
5	145	2.109555336361	0
5	145	2.117027785338	0
5	145	2.124267807784	0
5	145	2.131232964265	0
5	145	2.138809290187	0
5	145	2.146306413389	0
5	145	2.153941462509	0
5	145	2.161026533759	0
5	145	2.169155798331	0
5	145	2.177020560197	0
5	145	2.184720255132	0
5	145	2.19193807067	0
5	147	2.2	0
5	150	2.200542552091	0
5	150	2.207784054928	0
5	150	2.215164471137	0
5	150	2.223148407313	0
5	150	2.230755575489	0
5	150	2.238332887809	0
5	150	2.245931913575	0
5	150	2.253376481608	0
5	150	2.260550377849	0
5	150	2.268018632652	0
5	150	2.275385724822	0
5	150	2.282881861098	0
5	150	2.290505560032	0
5	150	2.298035499341	0
5	152	2.3	0
5	155	2.306381646612	0
5	155	2.314688068761	0
5	155	2.32214472691	0
5	159	2.330948818755	0
5	159	2.339387245789	0
5	160	2.347239671071	0
5	160	2.355811829849	0
5	160	2.363395064258	0
5	160	2.370692083044	0
5	160	2.378104328433	0
5	160	2.385911353499	0
5	160	2.393426488378	0
5	162	2.4	0
5	165	2.401316417933	0
5	165	2.409271239242	0
5	165	2.416415033689	0
5	165	2.423902040628	0
5	165	2.430812174622	0
5	165	2.438034184863	0
5	165	2.445336631746	0
5	165	2.452531254506	0
5	165	2.460047622779	0
5	165	2.467290606006	0
5	165	2.475053218841	0
5	165	2.482811636973	0
5	165	2.489852788926	0
5	165	2.497759249239	0
5	167	2.5	0
5	170	2.505902331314	0
5	170	2.514226272205	0
5	170	2.527614712849	0
5	170	2.539510881035	0
5	170	2.551978663924	0
5	170	2.564513841747	0
5	170	2.576724939059	0
5	170	2.588583664326	0
5	172	2.6	0
5	175	2.600882958095	0
5	175	2.615442918786	0
5	175	2.627690209641	0
5	175	2.640207498476	0
5	175	2.651490448914	0
5	176	2.659351039846	0
5	176	2.667382350091	0
5	176	2.675132625814	0
5	176	2.682858474307	0
5	176	2.690645760839	0
5	176	2.698690394594	0
5	178	2.7	0
5	184	2.707723705721	0
5	184	2.718613224487	0
5	184	2.7258823618	0
5	184	2.733566018383	0
5	184	2.740731032812	0
5	184	2.747954029979	0
5	184	2.755586365315	0
5	184	2.763299383761	0
5	184	2.770401726229	0
5	184	2.778108329651	0
5	184	2.784582231459	0
5	184	2.791982139736	0
5	184	2.799264601089	0
5	186	2.8	0
5	189	2.807789386327	0
5	189	2.815448369213	0
5	189	2.822909715	0
5	189	2.830066340024	0
5	192	2.838123804355	0
5	192	2.846525714043	0
5	192	2.853420303677	0
5	192	2.860855495377	0
5	192	2.868253676796	0
5	192	2.875237585413	0
5	195	2.883414470521	0
5	195	2.891707322163	0
5	195	2.899324606602	0
5	197	2.9	0
5	200	2.906869843275	0
5	200	2.91510841289	0
5	200	2.923229288585	0
5	200	2.930427365588	0
5	200	2.937633831468	0
5	200	2.944935784888	0
5	203	2.952440556508	0
5	206	2.963662677511	0
5	206	2.975191987123	0
5	206	2.98234318405	0
5	206	2.989634280747	0
5	206	2.997005074157	0
5	208	3	0
5	211	3.005357142988	0
5	211	3.013184894573	0
5	211	3.020705704017	0
5	211	3.028542337943	0
5	211	3.036115209622	0
5	211	3.043370529433	0
5	214	3.051142271605	0
5	214	3.059888627179	0
5	214	3.067363050009	0
5	214	3.074811072285	0
5	214	3.082836707437	0
5	214	3.090129777988	0
5	215	3.097440860745	0
5	217	3.1	0
5	220	3.108253891104	0
5	220	3.115733742031	0
5	220	3.124357469052	0
5	220	3.131355442168	0
5	220	3.138994932458	0
5	220	3.146249265871	0
5	220	3.154226046563	0
5	220	3.161405617897	0
5	220	3.169301716008	0
5	220	3.176670041572	0
5	223	3.184510623733	0
5	223	3.194885200528	0
5	225	3.2	0
5	228	3.203262930512	0
5	228	3.211353703884	0
5	228	3.219757587955	0
5	228	3.226881890335	0
5	228	3.234172987032	0
5	228	3.242008140568	0
5	228	3.249194620918	0
5	228	3.256643136657	0
5	228	3.26439785355	0
5	231	3.272083977449	0
5	231	3.279893716828	0
5	231	3.288153505896	0
5	231	3.295275094492	0
5	233	3.3	0
5	236	3.303192164532	0
5	236	3.311322663027	0
5	236	3.318605370847	0
5	236	3.326047224567	0
5	236	3.333374345676	0
5	236	3.341072312696	0
5	236	3.348013782936	0
5	240	3.356395953561	0
5	240	3.36430932289	0
5	240	3.372658183945	0
5	240	3.380253015008	0
5	240	3.387366707662	0
5	240	3.394575394392	0
5	242	3.4	0
5	245	3.402450272521	0
5	245	3.410955318695	0
5	248	3.418546699953	0
5	248	3.425651740568	0
5	248	3.431177247044	0
5	248	3.436866788989	0
5	248	3.443196552064	0
5	248	3.448739767688	0
5	248	3.454495138782	0
5	248	3.460184501657	0
5	248	3.465644358438	0
5	248	3.471097238388	0
5	248	3.476408622307	0
5	248	3.482217658055	0
5	248	3.487662846428	0
5	248	3.493112506568	0
5	248	3.498424606001	0
5	250	3.5	0
5	253	3.504837191859	0
5	253	3.510888434639	0
5	253	3.516073885135	0
5	253	3.521673270093	0
5	253	3.527458335376	0
5	253	3.534153198166	0
5	253	3.540310876054	0
5	253	3.546978905942	0
5	253	3.553075048146	0
5	253	3.558844729507	0
5	253	3.565159287731	0
5	253	3.570889256949	0
5	254	3.576455727525	0
5	254	3.582733435659	0
5	254	3.58828613241	0
5	254	3.594221459338	0
5	254	3.599768610669	0
5	256	3.6	0
5	265	3.606268312007	0
5	265	3.614482425208	0
5	265	3.621020407663	0
5	266	3.626736960814	0
5	266	3.633878493379	0
5	266	3.639507751596	0
5	266	3.645358646027	0
5	266	3.65119558718	0
5	266	3.656742022997	0
5	266	3.662553920798	0
5	266	3.668143467255	0
5	266	3.673916368427	0
5	266	3.679718069971	0
5	266	3.685195993656	0
5	266	3.691393383304	0
5	266	3.697336223122	0
5	268	3.7	0
5	271	3.703341493209	0
5	271	3.709712578141	0
5	271	3.715687080002	0
5	271	3.721205789101	0
5	271	3.727110169116	0
5	271	3.73372346108	0
5	271	3.73956183326	0
5	271	3.74513384964	0
5	271	3.751069891698	0
5	271	3.756594146217	0
5	271	3.762280825725	0
5	271	3.767773060445	0
5	271	3.773916606369	0
5	271	3.780409868087	0
5	271	3.786858409451	0
5	271	3.792992116874	0
5	271	3.798503312699	0
5	273	3.8	0
5	276	3.804335424329	0
5	276	3.810707020722	0
5	276	3.81677306168	0
5	276	3.822324837183	0
5	276	3.828322098968	0
5	276	3.835977975747	0
5	276	3.841947172138	0
5	276	3.848219156613	0
5	276	3.854513079503	0
5	276	3.860337403894	0
5	276	3.866066267393	0
5	276	3.871946326873	0
5	276	3.877842988339	0
5	276	3.884080583015	0
5	276	3.89035355589	0
5	276	3.896579687582	0
5	278	3.9	0
5	281	3.903199324947	0
5	281	3.909446604504	0
5	281	3.915127242722	0
5	281	3.921373336029	0
5	281	3.927195486618	0
5	281	3.933351257612	0
5	281	3.939163328045	0
5	281	3.945907085244	0
5	281	3.951890511546	0
5	281	3.957574905514	0
5	281	3.963090512268	0
5	281	3.969365066244	0
5	281	3.974934432134	0
5	281	3.981089807429	0
5	281	3.987167904919	0
5	281	3.993055079778	0
5	281	3.998863197458	0
5	283	4	0
5	286	4.005522363624	0
5	286	4.011958589012	0
5	289	4.018440272331	0
5	289	4.026421863585	0
5	289	4.034027797838	0
5	289	4.041826927491	0
5	289	4.049199448287	0
5	289	4.056811797563	0
5	289	4.064334581389	0
5	292	4.071760643752	0
5	292	4.079680921568	0
5	295	4.088096402292	0
5	296	4.097657652605	0
5	298	4.1	0
5	301	4.10432818679	0
6	0	0	300
6	0	0.1	300
6	6	0.2	300
6	11	0.3	300
6	16	0.4	300
6	21	0.5	300
6	26	0.52021839912	300
6	28	0.526972102057	300
6	28	0.536847282299	300
6	28	0.544091992383	300
6	28	0.55112253461	300
6	28	0.558279653097	300
6	28	0.565050627251	300
6	31	0.571901791052	300
6	31	0.581598086331	300
6	34	0.589714027393	300
6	34	0.599202816306	300
6	37	0.6	300
6	39	0.607162078785	300
6	39	0.614521769005	300
6	39	0.622056889415	300
6	39	0.628965049556	300
6	39	0.636755790332	300
6	39	0.643602759959	300
6	39	0.650844015799	300
6	39	0.658178538858	300
6	39	0.665430157429	300
6	39	0.672484633422	300
6	39	0.679528005696	300
6	39	0.687191183285	300
6	39	0.693596245104	300
6	42	0.7	300
6	44	0.701152092033	300
6	44	0.70861935938	300
6	44	0.716471538195	300
6	44	0.723715754816	300
6	44	0.730664626477	300
6	44	0.737810642303	300
6	44	0.744460961228	300
6	44	0.75224750783	300
6	44	0.759052531485	300
6	44	0.765995975049	300
6	44	0.773804974498	300
6	44	0.780656385295	300
6	44	0.788332886394	300
6	44	0.795268434545	300
6	47	0.8	300
6	49	0.803874396356	300
6	49	0.811600738312	300
6	49	0.81944822896	300
6	49	0.827768221615	300
6	49	0.835077330518	300
6	52	0.842623307651	300
6	52	0.850360753326	300
6	52	0.860266528825	300
6	52	0.869179679245	300
6	52	0.877861142536	300
6	52	0.886449832601	300
6	52	0.898924147284	300
6	55	0.9	300
6	57	0.906481227607	300
6	57	0.914447398573	300
6	57	0.922164118258	300
6	57	0.929838645504	300
6	57	0.937523782477	300
6	57	0.944681887891	300
6	57	0.952217255297	300
6	58	0.959268769981	300
6	58	0.967955661898	300
6	58	0.975541610091	300
6	59	0.982816422498	300
6	59	0.990761621007	300
6	59	0.998352997826	300
6	62	1	300
6	64	1.006056393472	300
6	64	1.013804448345	300
6	64	1.021901390803	300
6	64	1.029550750889	300
6	64	1.037484352744	300
6	64	1.044295051492	300
6	64	1.052781099063	300
6	64	1.06782557292	300
6	64	1.083301608442	300
6	64	1.098016881777	300
6	67	1.1	300
6	69	1.112959509405	300
6	69	1.128530704978	300
6	69	1.143876602611	300
6	72	1.161191019399	300
6	72	1.17833209064	300
6	72	1.193831273082	300
6	76	1.2	300
6	78	1.201863409254	300
6	78	1.20947945977	300
6	78	1.217156701329	300
6	78	1.224175646374	300
6	78	1.23121507147	300
6	78	1.238695909324	300
6	78	1.245785421744	300
6	78	1.253068623556	300
6	78	1.260633599292	300
6	78	1.267587159119	300
6	78	1.274497046646	300
6	78	1.28191940777	300
6	78	1.289264787023	300
6	78	1.296003931997	300
6	81	1.3	300
6	83	1.303608632856	300
6	83	1.311349285779	300
6	83	1.318665550165	300
6	83	1.325980333632	300
6	83	1.332757723339	300
6	83	1.340653080462	300
6	83	1.347500543552	300
6	83	1.353988262863	300
6	83	1.36111651295	300
6	83	1.368433764263	300
6	83	1.375030294625	300
6	83	1.382034682765	300
6	83	1.389799515921	300
6	83	1.396779970295	300
6	86	1.4	300
6	88	1.404258834295	300
6	88	1.411799629798	300
6	88	1.418960696521	300
6	88	1.426852105937	300
6	88	1.43396949983	300
6	88	1.441400003364	300
6	88	1.448196144678	300
6	88	1.45557631442	300
6	88	1.462049722765	300
6	88	1.469195244599	300
6	88	1.476312391496	300
6	88	1.483995307619	300
6	88	1.491063847582	300
6	88	1.498028017136	300
6	91	1.5	300
6	93	1.505755099552	300
6	93	1.513132061518	300
6	93	1.520493478595	300
6	93	1.527692295529	300
6	93	1.534501267419	300
6	93	1.542027998952	300
6	93	1.549406934771	300
6	93	1.556403920432	300
6	96	1.563684900866	300
6	96	1.574056764406	300
6	96	1.581367106703	300
6	96	1.589339939689	300
6	96	1.596113134693	300
6	99	1.6	300
6	101	1.603739794936	300
6	101	1.61078020643	300
6	101	1.618371829716	300
6	101	1.6254618356	300
6	101	1.63287186014	300
6	101	1.63991621987	300
6	101	1.64724630123	300
6	101	1.654625483517	300
6	101	1.661952604097	300
6	101	1.668519279661	300
6	104	1.676367263773	300
6	104	1.684290008906	300
6	104	1.691421713237	300
6	104	1.69896769037	300
6	107	1.7	300
6	109	1.706635309129	300
6	109	1.714253086502	300
6	109	1.721478551515	300
6	112	1.735714772912	300
6	112	1.755542540918	300
6	112	1.771918047859	300
6	112	1.789788100999	300
6	118	1.8	300
6	120	1.805572827024	300
6	120	1.823131479735	300
6	120	1.834705645243	300
6	120	1.847874842336	300
6	120	1.859856710903	300
6	120	1.872084448719	300
6	120	1.884039275129	300
6	120	1.895643394436	300
6	123	1.9	300
6	128	1.909168290783	300
6	128	1.922607903207	300
6	128	1.936109501956	300
6	131	1.948418363569	300
6	132	1.966767042508	300
6	135	1.98277487925	300
6	135	1.992925418392	300
6	138	2	300
6	140	2.00115707952	300
6	140	2.009415634665	300
6	140	2.017183922065	300
6	140	2.024458981468	300
6	140	2.03225885158	300
6	140	2.039621255584	300
6	140	2.047397438926	300
6	140	2.054871615289	300
6	140	2.062438564879	300
6	140	2.070086691042	300
6	140	2.077963543553	300
6	140	2.085437966383	300
6	140	2.092975554638	300
6	143	2.1	300
6	145	2.101539077542	300
6	145	2.109555336361	300
6	145	2.117027785338	300
6	145	2.124267807784	300
6	145	2.131232964265	300
6	145	2.138809290187	300
6	145	2.146306413389	300
6	145	2.153941462509	300
6	145	2.161026533759	300
6	145	2.169155798331	300
6	145	2.177020560197	300
6	145	2.184720255132	300
6	145	2.19193807067	300
6	148	2.2	300
6	150	2.200542552091	300
6	150	2.207784054928	300
6	150	2.215164471137	300
6	150	2.223148407313	300
6	150	2.230755575489	300
6	150	2.238332887809	300
6	150	2.245931913575	300
6	150	2.253376481608	300
6	150	2.260550377849	300
6	150	2.268018632652	300
6	150	2.275385724822	300
6	150	2.282881861098	300
6	150	2.290505560032	300
6	150	2.298035499341	300
6	153	2.3	300
6	155	2.306381646612	300
6	155	2.314688068761	300
6	155	2.32214472691	300
6	159	2.330948818755	300
6	159	2.339387245789	300
6	160	2.347239671071	300
6	160	2.355811829849	300
6	160	2.363395064258	300
6	160	2.370692083044	300
6	160	2.378104328433	300
6	160	2.385911353499	300
6	160	2.393426488378	300
6	163	2.4	300
6	165	2.401316417933	300
6	165	2.409271239242	300
6	165	2.416415033689	300
6	165	2.423902040628	300
6	165	2.430812174622	300
6	165	2.438034184863	300
6	165	2.445336631746	300
6	165	2.452531254506	300
6	165	2.460047622779	300
6	165	2.467290606006	300
6	165	2.475053218841	300
6	165	2.482811636973	300
6	165	2.489852788926	300
6	165	2.497759249239	300
6	168	2.5	300
6	170	2.505902331314	300
6	170	2.514226272205	300
6	170	2.527614712849	300
6	170	2.539510881035	300
6	170	2.551978663924	300
6	170	2.564513841747	300
6	170	2.576724939059	300
6	170	2.588583664326	300
6	173	2.6	300
6	175	2.600882958095	300
6	175	2.615442918786	300
6	175	2.627690209641	300
6	175	2.640207498476	300
6	175	2.651490448914	300
6	176	2.659351039846	300
6	176	2.667382350091	300
6	176	2.675132625814	300
6	176	2.682858474307	300
6	176	2.690645760839	300
6	176	2.698690394594	300
6	179	2.7	300
6	184	2.707723705721	300
6	184	2.718613224487	300
6	184	2.7258823618	300
6	184	2.733566018383	300
6	184	2.740731032812	300
6	184	2.747954029979	300
6	184	2.755586365315	300
6	184	2.763299383761	300
6	184	2.770401726229	300
6	184	2.778108329651	300
6	184	2.784582231459	300
6	184	2.791982139736	300
6	184	2.799264601089	300
6	187	2.8	300
6	189	2.807789386327	300
6	189	2.815448369213	300
6	189	2.822909715	300
6	189	2.830066340024	300
6	192	2.838123804355	300
6	192	2.846525714043	300
6	192	2.853420303677	300
6	192	2.860855495377	300
6	192	2.868253676796	300
6	192	2.875237585413	300
6	195	2.883414470521	300
6	195	2.891707322163	300
6	195	2.899324606602	300
6	198	2.9	300
6	200	2.906869843275	300
6	200	2.91510841289	300
6	200	2.923229288585	300
6	200	2.930427365588	300
6	200	2.937633831468	300
6	200	2.944935784888	300
6	203	2.952440556508	300
6	206	2.963662677511	300
6	206	2.975191987123	300
6	206	2.98234318405	300
6	206	2.989634280747	300
6	206	2.997005074157	300
6	209	3	300
6	211	3.005357142988	300
6	211	3.013184894573	300
6	211	3.020705704017	300
6	211	3.028542337943	300
6	211	3.036115209622	300
6	211	3.043370529433	300
6	214	3.051142271605	300
6	214	3.059888627179	300
6	214	3.067363050009	300
6	214	3.074811072285	300
6	214	3.082836707437	300
6	214	3.090129777988	300
6	215	3.097440860745	300
6	218	3.1	300
6	220	3.108253891104	300
6	220	3.115733742031	300
6	220	3.124357469052	300
6	220	3.131355442168	300
6	220	3.138994932458	300
6	220	3.146249265871	300
6	220	3.154226046563	300
6	220	3.161405617897	300
6	220	3.169301716008	300
6	220	3.176670041572	300
6	223	3.184510623733	300
6	223	3.194885200528	300
6	226	3.2	300
6	228	3.203262930512	300
6	228	3.211353703884	300
6	228	3.219757587955	300
6	228	3.226881890335	300
6	228	3.234172987032	300
6	228	3.242008140568	300
6	228	3.249194620918	300
6	228	3.256643136657	300
6	228	3.26439785355	300
[...]
13	112	1.735714772912	180
13	112	1.755542540918	180
13	112	1.771918047859	180
13	112	1.789788100999	180
13	120	1.8	180
13	120	1.805572827024	180
13	120	1.823131479735	180
13	120	1.834705645243	180
13	120	1.847874842336	180
13	120	1.859856710903	180
13	120	1.872084448719	180
13	120	1.884039275129	180
13	120	1.895643394436	180
13	125	1.9	180
13	128	1.909168290783	180
13	128	1.922607903207	180
13	128	1.936109501956	180
13	131	1.948418363569	180
13	132	1.966767042508	180
13	135	1.98277487925	180
13	135	1.992925418392	180
13	140	2	180
13	140	2.00115707952	180
13	140	2.009415634665	180
13	140	2.017183922065	180
13	140	2.024458981468	180
13	140	2.03225885158	180
13	140	2.039621255584	180
13	140	2.047397438926	180
13	140	2.054871615289	180
13	140	2.062438564879	180
13	140	2.070086691042	180
13	140	2.077963543553	180
13	140	2.085437966383	180
13	140	2.092975554638	180
13	145	2.1	180
13	145	2.101539077542	180
13	145	2.109555336361	180
13	145	2.117027785338	180
13	145	2.124267807784	180
13	145	2.131232964265	180
13	145	2.138809290187	180
13	145	2.146306413389	180
13	145	2.153941462509	180
13	145	2.161026533759	180
13	145	2.169155798331	180
13	145	2.177020560197	180
13	145	2.184720255132	180
13	145	2.19193807067	180
13	150	2.2	180
13	150	2.200542552091	180
13	150	2.207784054928	180
13	150	2.215164471137	180
13	150	2.223148407313	180
13	150	2.230755575489	180
13	150	2.238332887809	180
13	150	2.245931913575	180
13	150	2.253376481608	180
13	150	2.260550377849	180
13	150	2.268018632652	180
13	150	2.275385724822	180
13	150	2.282881861098	180
13	150	2.290505560032	180
13	150	2.298035499341	180
13	155	2.3	180
13	155	2.306381646612	180
13	155	2.314688068761	180
13	155	2.32214472691	180
13	159	2.330948818755	180
13	159	2.339387245789	180
13	160	2.347239671071	180
13	160	2.355811829849	180
13	160	2.363395064258	180
13	160	2.370692083044	180
13	160	2.378104328433	180
13	160	2.385911353499	180
13	160	2.393426488378	180
13	165	2.4	180
13	165	2.401316417933	180
13	165	2.409271239242	180
13	165	2.416415033689	180
13	165	2.423902040628	180
13	165	2.430812174622	180
13	165	2.438034184863	180
13	165	2.445336631746	180
13	165	2.452531254506	180
13	165	2.460047622779	180
13	165	2.467290606006	180
13	165	2.475053218841	180
13	165	2.482811636973	180
13	165	2.489852788926	180
13	165	2.497759249239	180
13	170	2.5	180
13	170	2.505902331314	180
13	170	2.514226272205	180
13	170	2.527614712849	180
13	170	2.539510881035	180
13	170	2.551978663924	180
13	170	2.564513841747	180
13	170	2.576724939059	180
13	170	2.588583664326	180
13	175	2.6	180
13	175	2.600882958095	180
13	175	2.615442918786	180
13	175	2.627690209641	180
13	175	2.640207498476	180
13	175	2.651490448914	180
13	176	2.659351039846	180
13	176	2.667382350091	180
13	176	2.675132625814	180
13	176	2.682858474307	180
13	176	2.690645760839	180
13	176	2.698690394594	180
13	181	2.7	180
13	184	2.707723705721	180
13	184	2.718613224487	180
13	184	2.7258823618	180
13	184	2.733566018383	180
13	184	2.740731032812	180
13	184	2.747954029979	180
13	184	2.755586365315	180
13	184	2.763299383761	180
13	184	2.770401726229	180
13	184	2.778108329651	180
13	184	2.784582231459	180
13	184	2.791982139736	180
13	184	2.799264601089	180
13	189	2.8	180
13	189	2.807789386327	180
13	189	2.815448369213	180
13	189	2.822909715	180
13	189	2.830066340024	180
13	192	2.838123804355	180
13	192	2.846525714043	180
13	192	2.853420303677	180
13	192	2.860855495377	180
13	192	2.868253676796	180
13	192	2.875237585413	180
13	195	2.883414470521	180
13	195	2.891707322163	180
13	195	2.899324606602	180
13	200	2.9	180
13	200	2.906869843275	180
13	200	2.91510841289	180
13	200	2.923229288585	180
13	200	2.930427365588	180
13	200	2.937633831468	180
13	200	2.944935784888	180
13	203	2.952440556508	180
13	206	2.963662677511	180
13	206	2.975191987123	180
13	206	2.98234318405	180
13	206	2.989634280747	180
13	206	2.997005074157	180
13	211	3	180
13	211	3.005357142988	180
13	211	3.013184894573	180
13	211	3.020705704017	180
13	211	3.028542337943	180
13	211	3.036115209622	180
13	211	3.043370529433	180
13	214	3.051142271605	180
13	214	3.059888627179	180
13	214	3.067363050009	180
13	214	3.074811072285	180
13	214	3.082836707437	180
13	214	3.090129777988	180
13	215	3.097440860745	180
13	220	3.1	180
13	220	3.108253891104	180
13	220	3.115733742031	180
13	220	3.124357469052	180
13	220	3.131355442168	180
13	220	3.138994932458	180
13	220	3.146249265871	180
13	220	3.154226046563	180
13	220	3.161405617897	180
13	220	3.169301716008	180
13	220	3.176670041572	180
13	223	3.184510623733	180
13	223	3.194885200528	180
13	228	3.2	180
13	228	3.203262930512	180
13	228	3.211353703884	180
13	228	3.219757587955	180
13	228	3.226881890335	180
13	228	3.234172987032	180
13	228	3.242008140568	180
13	228	3.249194620918	180
13	228	3.256643136657	180
13	228	3.26439785355	180
13	231	3.272083977449	180
13	231	3.279893716828	180
13	231	3.288153505896	180
13	231	3.295275094492	180
13	236	3.3	180
13	236	3.303192164532	180
13	236	3.311322663027	180
13	236	3.318605370847	180
13	236	3.326047224567	180
13	236	3.333374345676	180
13	236	3.341072312696	180
13	236	3.348013782936	180
13	240	3.356395953561	180
13	240	3.36430932289	180
13	240	3.372658183945	180
13	240	3.380253015008	180
13	240	3.387366707662	180
13	240	3.394575394392	180
13	245	3.4	180
13	245	3.402450272521	180
13	245	3.410955318695	180
13	248	3.418546699953	180
13	248	3.425651740568	180
13	248	3.431177247044	180
13	248	3.436866788989	180
13	248	3.443196552064	180
13	248	3.448739767688	180
13	248	3.454495138782	180
13	248	3.460184501657	180
13	248	3.465644358438	180
13	248	3.471097238388	180
13	248	3.476408622307	180
13	248	3.482217658055	180
13	248	3.487662846428	180
13	248	3.493112506568	180
13	248	3.498424606001	180
13	253	3.5	180
13	253	3.504837191859	180
13	253	3.510888434639	180
13	253	3.516073885135	180
13	253	3.521673270093	180
13	253	3.527458335376	180
13	253	3.534153198166	180
13	253	3.540310876054	180
13	253	3.546978905942	180
13	253	3.553075048146	180
13	253	3.558844729507	180
13	253	3.565159287731	180
13	253	3.570889256949	180
13	254	3.576455727525	180
13	254	3.582733435659	180
13	254	3.58828613241	180
13	254	3.594221459338	180
13	254	3.599768610669	180
13	259	3.6	180
13	265	3.606268312007	180
13	265	3.614482425208	180
13	265	3.621020407663	180
13	266	3.626736960814	180
13	266	3.633878493379	180
13	266	3.639507751596	180
13	266	3.645358646027	180
13	266	3.65119558718	180
13	266	3.656742022997	180
13	266	3.662553920798	180
13	266	3.668143467255	180
13	266	3.673916368427	180
13	266	3.679718069971	180
13	266	3.685195993656	180
13	266	3.691393383304	180
13	266	3.697336223122	180
13	271	3.7	180
13	271	3.703341493209	180
13	271	3.709712578141	180
13	271	3.715687080002	180
13	271	3.721205789101	180
13	271	3.727110169116	180
13	271	3.73372346108	180
13	271	3.73956183326	180
13	271	3.74513384964	180
13	271	3.751069891698	180
13	271	3.756594146217	180
13	271	3.762280825725	180
13	271	3.767773060445	180
13	271	3.773916606369	180
13	271	3.780409868087	180
13	271	3.786858409451	180
13	271	3.792992116874	180
13	271	3.798503312699	180
13	276	3.8	180
13	276	3.804335424329	180
13	276	3.810707020722	180
13	276	3.81677306168	180
13	276	3.822324837183	180
13	276	3.828322098968	180
13	276	3.835977975747	180
13	276	3.841947172138	180
13	276	3.848219156613	180
13	276	3.854513079503	180
13	276	3.860337403894	180
13	276	3.866066267393	180
13	276	3.871946326873	180
13	276	3.877842988339	180
13	276	3.884080583015	180
13	276	3.89035355589	180
13	276	3.896579687582	180
13	281	3.9	180
13	281	3.903199324947	180
13	281	3.909446604504	180
13	281	3.915127242722	180
13	281	3.921373336029	180
13	281	3.927195486618	180
13	281	3.933351257612	180
13	281	3.939163328045	180
13	281	3.945907085244	180
13	281	3.951890511546	180
13	281	3.957574905514	180
13	281	3.963090512268	180
13	281	3.969365066244	180
13	281	3.974934432134	180
13	281	3.981089807429	180
13	281	3.987167904919	180
13	281	3.993055079778	180
13	281	3.998863197458	180
13	286	4	180
13	286	4.005522363624	180
13	286	4.011958589012	180
13	289	4.018440272331	180
13	289	4.026421863585	180
13	289	4.034027797838	180
13	289	4.041826927491	180
13	289	4.049199448287	180
13	289	4.056811797563	180
13	289	4.064334581389	180
13	292	4.071760643752	180
13	292	4.079680921568	180
13	295	4.088096402292	180
13	296	4.097657652605	180
13	301	4.1	180
13	301	4.10432818679	180
14	0	0	0
14	0	0.1	0
14	6	0.2	0
14	11	0.3	0
14	16	0.4	0
14	21	0.5	0
14	26	0.52021839912	0
14	28	0.526972102057	0
14	28	0.536847282299	0
14	28	0.544091992383	0
14	28	0.55112253461	0
14	28	0.558279653097	0
14	28	0.565050627251	0
14	31	0.571901791052	0
14	31	0.581598086331	0
14	34	0.589714027393	0
14	34	0.599202816306	0
14	39	0.6	0
14	39	0.607162078785	0
14	39	0.614521769005	0
14	39	0.622056889415	0
14	39	0.628965049556	0
14	39	0.636755790332	0
14	39	0.643602759959	0
14	39	0.650844015799	0
14	39	0.658178538858	0
14	39	0.665430157429	0
14	39	0.672484633422	0
14	39	0.679528005696	0
14	39	0.687191183285	0
14	39	0.693596245104	0
14	44	0.7	0
14	44	0.701152092033	0
14	44	0.70861935938	0
14	44	0.716471538195	0
14	44	0.723715754816	0
14	44	0.730664626477	0
14	44	0.737810642303	0
14	44	0.744460961228	0
14	44	0.75224750783	0
14	44	0.759052531485	0
14	44	0.765995975049	0
14	44	0.773804974498	0
14	44	0.780656385295	0
14	44	0.788332886394	0
14	44	0.795268434545	0
14	49	0.8	0
14	49	0.803874396356	0
14	49	0.811600738312	0
14	49	0.81944822896	0
14	49	0.827768221615	0
14	49	0.835077330518	0
14	52	0.842623307651	0
14	52	0.850360753326	0
14	52	0.860266528825	0
14	52	0.869179679245	0
14	52	0.877861142536	0
14	52	0.886449832601	0
14	52	0.898924147284	0
14	57	0.9	0
14	57	0.906481227607	0
14	57	0.914447398573	0
14	57	0.922164118258	0
14	57	0.929838645504	0
14	57	0.937523782477	0
14	57	0.944681887891	0
14	57	0.952217255297	0
14	58	0.959268769981	0
14	58	0.967955661898	0
14	58	0.975541610091	0
14	59	0.982816422498	0
14	59	0.990761621007	0
14	59	0.998352997826	0
14	64	1	0
14	64	1.006056393472	0
14	64	1.013804448345	0
14	64	1.021901390803	0
14	64	1.029550750889	0
14	64	1.037484352744	0
14	64	1.044295051492	0
14	64	1.052781099063	0
14	64	1.06782557292	0
14	64	1.083301608442	0
14	64	1.098016881777	0
14	69	1.1	0
14	69	1.112959509405	0
14	69	1.128530704978	0
14	69	1.143876602611	0
14	72	1.161191019399	0
14	72	1.17833209064	0
14	72	1.193831273082	0
14	78	1.2	0
14	78	1.201863409254	0
14	78	1.20947945977	0
14	78	1.217156701329	0
14	78	1.224175646374	0
14	78	1.23121507147	0
14	78	1.238695909324	0
14	78	1.245785421744	0
14	78	1.253068623556	0
14	78	1.260633599292	0
14	78	1.267587159119	0
14	78	1.274497046646	0
14	78	1.28191940777	0
14	78	1.289264787023	0
14	78	1.296003931997	0
14	83	1.3	0
14	83	1.303608632856	0
14	83	1.311349285779	0
14	83	1.318665550165	0
14	83	1.325980333632	0
14	83	1.332757723339	0
14	83	1.340653080462	0
14	83	1.347500543552	0
14	83	1.353988262863	0
14	83	1.36111651295	0
14	83	1.368433764263	0
14	83	1.375030294625	0
14	83	1.382034682765	0
14	83	1.389799515921	0
14	83	1.396779970295	0
14	88	1.4	0
14	88	1.404258834295	0
14	88	1.411799629798	0
14	88	1.418960696521	0
14	88	1.426852105937	0
14	88	1.43396949983	0
14	88	1.441400003364	0
14	88	1.448196144678	0
14	88	1.45557631442	0
14	88	1.462049722765	0
14	88	1.469195244599	0
14	88	1.476312391496	0
14	88	1.483995307619	0
14	88	1.491063847582	0
14	88	1.498028017136	0
14	93	1.5	0
14	93	1.505755099552	0
14	93	1.513132061518	0
14	93	1.520493478595	0
14	93	1.527692295529	0
14	93	1.534501267419	0
14	93	1.542027998952	0
14	93	1.549406934771	0
14	93	1.556403920432	0
14	96	1.563684900866	0
14	96	1.574056764406	0
14	96	1.581367106703	0
14	96	1.589339939689	0
14	96	1.596113134693	0
14	101	1.6	0
14	101	1.603739794936	0
14	101	1.61078020643	0
14	101	1.618371829716	0
14	101	1.6254618356	0
14	101	1.63287186014	0
14	101	1.63991621987	0
14	101	1.64724630123	0
14	101	1.654625483517	0
14	101	1.661952604097	0
14	101	1.668519279661	0
14	104	1.676367263773	0
14	104	1.684290008906	0
14	104	1.691421713237	0
14	104	1.69896769037	0
14	109	1.7	0
14	109	1.706635309129	0
14	109	1.714253086502	0
14	109	1.721478551515	0
14	112	1.735714772912	0
14	112	1.755542540918	0
14	112	1.771918047859	0
14	112	1.789788100999	0
14	120	1.8	0
14	120	1.805572827024	0
14	120	1.823131479735	0
14	120	1.834705645243	0
14	120	1.847874842336	0
14	120	1.859856710903	0
14	120	1.872084448719	0
14	120	1.884039275129	0
14	120	1.895643394436	0
14	125	1.9	0
14	128	1.909168290783	0
14	128	1.922607903207	0
14	128	1.936109501956	0
14	131	1.948418363569	0
14	132	1.966767042508	0
14	135	1.98277487925	0
14	135	1.992925418392	0
14	140	2	0
14	140	2.00115707952	0
14	140	2.009415634665	0
14	140	2.017183922065	0
14	140	2.024458981468	0
14	140	2.03225885158	0
14	140	2.039621255584	0
14	140	2.047397438926	0
14	140	2.054871615289	0
14	140	2.062438564879	0
14	140	2.070086691042	0
14	140	2.077963543553	0
14	140	2.085437966383	0
14	140	2.092975554638	0
14	145	2.1	0
14	145	2.101539077542	0
14	145	2.109555336361	0
14	145	2.117027785338	0
14	145	2.124267807784	0
14	145	2.131232964265	0
14	145	2.138809290187	0
14	145	2.146306413389	0
14	145	2.153941462509	0
14	145	2.161026533759	0
14	145	2.169155798331	0
14	145	2.177020560197	0
14	145	2.184720255132	0
14	145	2.19193807067	0
14	150	2.2	0
14	150	2.200542552091	0
14	150	2.207784054928	0
14	150	2.215164471137	0
14	150	2.223148407313	0
14	150	2.230755575489	0
14	150	2.238332887809	0
14	150	2.245931913575	0
14	150	2.253376481608	0
14	150	2.260550377849	0
14	150	2.268018632652	0
14	150	2.275385724822	0
14	150	2.282881861098	0
14	150	2.290505560032	0
14	150	2.298035499341	0
14	155	2.3	0
14	155	2.306381646612	0
14	155	2.314688068761	0
14	155	2.32214472691	0
14	159	2.330948818755	0
14	159	2.339387245789	0
14	160	2.347239671071	0
14	160	2.355811829849	0
14	160	2.363395064258	0
14	160	2.370692083044	0
14	160	2.378104328433	0
14	160	2.385911353499	0
14	160	2.393426488378	0
14	165	2.4	0
14	165	2.401316417933	0
14	165	2.409271239242	0
14	165	2.416415033689	0
14	165	2.423902040628	0
14	165	2.430812174622	0
14	165	2.438034184863	0
14	165	2.445336631746	0
14	165	2.452531254506	0
14	165	2.460047622779	0
14	165	2.467290606006	0
14	165	2.475053218841	0
14	165	2.482811636973	0
14	165	2.489852788926	0
14	165	2.497759249239	0
14	170	2.5	0
14	170	2.505902331314	0
14	170	2.514226272205	0
14	170	2.527614712849	0
14	170	2.539510881035	0
14	170	2.551978663924	0
14	170	2.564513841747	0
14	170	2.576724939059	0
14	170	2.588583664326	0
14	175	2.6	0
14	175	2.600882958095	0
14	175	2.615442918786	0
14	175	2.627690209641	0
14	175	2.640207498476	0
14	175	2.651490448914	0
14	176	2.659351039846	0
14	176	2.667382350091	0
14	176	2.675132625814	0
14	176	2.682858474307	0
14	176	2.690645760839	0
14	176	2.698690394594	0
14	181	2.7	0
14	184	2.707723705721	0
14	184	2.718613224487	0
14	184	2.7258823618	0
14	184	2.733566018383	0
14	184	2.740731032812	0
14	184	2.747954029979	0
14	184	2.755586365315	0
14	184	2.763299383761	0
14	184	2.770401726229	0
14	184	2.778108329651	0
14	184	2.784582231459	0
14	184	2.791982139736	0
14	184	2.799264601089	0
14	189	2.8	0
14	189	2.807789386327	0
14	189	2.815448369213	0
14	189	2.822909715	0
14	189	2.830066340024	0
14	192	2.838123804355	0
14	192	2.846525714043	0
14	192	2.853420303677	0
14	192	2.860855495377	0
14	192	2.868253676796	0
14	192	2.875237585413	0
14	195	2.883414470521	0
14	195	2.891707322163	0
14	195	2.899324606602	0
14	200	2.9	0
14	200	2.906869843275	0
14	200	2.91510841289	0
14	200	2.923229288585	0
14	200	2.930427365588	0
14	200	2.937633831468	0
14	200	2.944935784888	0
14	203	2.952440556508	0
14	206	2.963662677511	0
14	206	2.975191987123	0
14	206	2.98234318405	0
14	206	2.989634280747	0
14	206	2.997005074157	0
14	211	3	0
14	211	3.005357142988	0
14	211	3.013184894573	0
14	211	3.020705704017	0
14	211	3.028542337943	0
14	211	3.036115209622	0
14	211	3.043370529433	0
14	214	3.051142271605	0
14	214	3.059888627179	0
14	214	3.067363050009	0
14	214	3.074811072285	0
14	214	3.082836707437	0
14	214	3.090129777988	0
14	215	3.097440860745	0
14	220	3.1	0
14	220	3.108253891104	0
14	220	3.115733742031	0
14	220	3.124357469052	0
14	220	3.131355442168	0
14	220	3.138994932458	0
14	220	3.146249265871	0
14	220	3.154226046563	0
14	220	3.161405617897	0
14	220	3.169301716008	0
14	220	3.176670041572	0
14	223	3.184510623733	0
14	223	3.194885200528	0
14	228	3.2	0
14	228	3.203262930512	0
14	228	3.211353703884	0
14	228	3.219757587955	0
14	228	3.226881890335	0
14	228	3.234172987032	0
14	228	3.242008140568	0
14	228	3.249194620918	0
14	228	3.256643136657	0
14	228	3.26439785355	0
14	231	3.272083977449	0
14	231	3.279893716828	0
14	231	3.288153505896	0
14	231	3.295275094492	0
14	236	3.3	0
14	236	3.303192164532	0
14	236	3.311322663027	0
14	236	3.318605370847	0
14	236	3.326047224567	0
14	236	3.333374345676	0
14	236	3.341072312696	0
14	236	3.348013782936	0
14	240	3.356395953561	0
14	240	3.36430932289	0
14	240	3.372658183945	0
14	240	3.380253015008	0
14	240	3.387366707662	0
14	240	3.394575394392	0
14	245	3.4	0
14	245	3.402450272521	0
14	245	3.410955318695	0
14	248	3.418546699953	0
14	248	3.425651740568	0
14	248	3.431177247044	0
14	248	3.436866788989	0
14	248	3.443196552064	0
14	248	3.448739767688	0
14	248	3.454495138782	0
14	248	3.460184501657	0
14	248	3.465644358438	0
14	248	3.471097238388	0
14	248	3.476408622307	0
14	248	3.482217658055	0
14	248	3.487662846428	0
14	248	3.493112506568	0
14	248	3.498424606001	0
14	253	3.5	0
14	253	3.504837191859	0
14	253	3.510888434639	0
14	253	3.516073885135	0
14	253	3.521673270093	0
14	253	3.527458335376	0
14	253	3.534153198166	0
14	253	3.540310876054	0
14	253	3.546978905942	0
14	253	3.553075048146	0
14	253	3.558844729507	0
14	253	3.565159287731	0
14	253	3.570889256949	0
14	254	3.576455727525	0
14	254	3.582733435659	0
14	254	3.58828613241	0
14	254	3.594221459338	0
14	254	3.599768610669	0
14	259	3.6	0
14	265	3.606268312007	0
14	265	3.614482425208	0
14	265	3.621020407663	0
14	266	3.626736960814	0
14	266	3.633878493379	0
14	266	3.639507751596	0
14	266	3.645358646027	0
14	266	3.65119558718	0
14	266	3.656742022997	0
14	266	3.662553920798	0
14	266	3.668143467255	0
14	266	3.673916368427	0
14	266	3.679718069971	0
14	266	3.685195993656	0
14	266	3.691393383304	0
14	266	3.697336223122	0
14	271	3.7	0
14	271	3.703341493209	0
14	271	3.709712578141	0
14	271	3.715687080002	0
14	271	3.721205789101	0
14	271	3.727110169116	0
14	271	3.73372346108	0
14	271	3.73956183326	0
14	271	3.74513384964	0
14	271	3.751069891698	0
14	271	3.756594146217	0
14	271	3.762280825725	0
14	271	3.767773060445	0
14	271	3.773916606369	0
14	271	3.780409868087	0
14	271	3.786858409451	0
14	271	3.792992116874	0
14	271	3.798503312699	0
14	276	3.8	0
14	276	3.804335424329	0
14	276	3.810707020722	0
14	276	3.81677306168	0
14	276	3.822324837183	0
14	276	3.828322098968	0
14	276	3.835977975747	0
14	276	3.841947172138	0
14	276	3.848219156613	0
14	276	3.854513079503	0
14	276	3.860337403894	0
14	276	3.866066267393	0
14	276	3.871946326873	0
14	276	3.877842988339	0
14	276	3.884080583015	0
14	276	3.89035355589	0
14	276	3.896579687582	0
14	281	3.9	0
14	281	3.903199324947	0
14	281	3.909446604504	0
14	281	3.915127242722	0
14	281	3.921373336029	0
14	281	3.927195486618	0
14	281	3.933351257612	0
14	281	3.939163328045	0
14	281	3.945907085244	0
14	281	3.951890511546	0
14	281	3.957574905514	0
14	281	3.963090512268	0
14	281	3.969365066244	0
14	281	3.974934432134	0
14	281	3.981089807429	0
14	281	3.987167904919	0
14	281	3.993055079778	0
14	281	3.998863197458	0
14	286	4	0
14	286	4.005522363624	0
14	286	4.011958589012	0
14	289	4.018440272331	0
14	289	4.026421863585	0
14	289	4.034027797838	0
14	289	4.041826927491	0
14	289	4.049199448287	0
14	289	4.056811797563	0
14	289	4.064334581389	0
14	292	4.071760643752	0
14	292	4.079680921568	0
14	295	4.088096402292	0
14	296	4.097657652605	0
14	301	4.1	0
14	301	4.10432818679	0
15	52	0.837396161631	0
15	104	1.673637891096	1.102601832385
15	128	1.903884566714	1.316755269746
15	192	2.836248752661	0
15	195	2.877492606732	1.316755269746
15	231	3.268650499217	2.748432100097
15	289	4.017413623723	1.316755269746
15	292	4.065498364532	1.102601832385
16	72	1.148171876557	0
16	158	2.327051410219	0
16	265	3.601285096724	0

