version 2
run Mesh-0-20190225-16:24:57-20908
attr configname Mesh
attr datetime 20190225-16:24:57
attr experiment Mesh
attr inifile omnetpp.ini
attr iterationvars ""
attr iterationvarsf ""
attr measurement ""
attr network networks.Mesh
attr processid 20908
attr repetition 0
attr replication #0
attr resultdir results
attr runnumber 0
attr seedset 0
param **.destAddresses "\"0 18 52\""
param **.appType "\"App\""
param **.app.packetLength "4096 bytes"

scalar Mesh.node[0].app hopCount:mean 7.0110326566637
attr interpolationmode none
attr title "hop count of arrived packets, mean"
scalar Mesh.node[0].app hopCount:max 14
attr interpolationmode none
attr title "hop count of arrived packets, max"
scalar Mesh.node[0].app endToEndDelay:mean 0.00093084078375993
attr interpolationmode none
attr title "end-to-end delay of arrived packets, mean"
attr unit s
scalar Mesh.node[0].app endToEndDelay:max 0.001858752
attr interpolationmode none
attr title "end-to-end delay of arrived packets, max"
attr unit s
statistic Mesh.node[0].routing outputIf:histogram
field count 2342
field mean -0.90264730999146
field stddev 0.53169656110994
field min -1
field max 2
field sum -2114
field sqrsum 2570
attr interpolationmode none
attr title "output interface for each routed packet, histogram"
bin	-inf	0
bin	-2	0
bin	-1	2266
bin	0	0
bin	1	0
bin	2	76
bin	3	0
scalar Mesh.node[0].routing drop:count 0
attr interpolationmode none
attr title "dropped packet byte length, count"
attr unit bytes
scalar Mesh.node[0].routing drop:sum 0
attr interpolationmode none
attr title "dropped packet byte length, sum"
attr unit bytes
scalar Mesh.node[0].queue[0] rxBytes:count 283
attr interpolationmode none
attr title "received packet byte length, count"
attr unit bytes
scalar Mesh.node[0].queue[0] rxBytes:sum 1159168
attr interpolationmode none
attr title "received packet byte length, sum"
attr unit bytes
statistic Mesh.node[0].queue[0] rxBytes:histogram
field count 283
field mean 4096
field stddev 0
field min 4096
field max 4096
field sum 1159168
field sqrsum 4747952128
attr interpolationmode none
attr title "received packet byte length, histogram"
attr unit bytes
bin	-inf	0
bin	4095	0
bin	4096	283
bin	4097	0
scalar Mesh.node[0].queue[0] txBytes:count 0
attr interpolationmode none
attr title "transmitting packet byte length, count"
attr unit bytes
scalar Mesh.node[0].queue[0] txBytes:sum 0
attr interpolationmode none
attr title "transmitting packet byte length, sum"
attr unit bytes
statistic Mesh.node[0].queue[0] txBytes:histogram
field count 0
field mean nan
field stddev nan
field min nan
field max nan
field sum 0
field sqrsum 0
attr interpolationmode none
attr title "transmitting packet byte length, histogram"
attr unit bytes
bin	-inf	0
bin	0	0
bin	1	0
scalar Mesh.node[0].queue[0] busy:timeavg 0
attr interpolationmode sample-hold
attr title "server busy state, timeavg"
scalar Mesh.node[0].queue[0] qlen:timeavg 0
attr interpolationmode sample-hold
attr title "queue length, timeavg"
scalar Mesh.node[0].queue[0] qlen:max 0
attr interpolationmode sample-hold
attr title "queue length, max"
scalar Mesh.node[0].queue[0] drop:count 0
attr interpolationmode none
attr title "dropped packet byte length, count"
attr unit bytes
scalar Mesh.node[0].queue[0] drop:sum 0
attr interpolationmode none
attr title "dropped packet byte length, sum"
attr unit bytes
scalar Mesh.node[0].queue[1] rxBytes:count 0
attr interpolationmode none
attr title "received packet byte length, count"
attr unit bytes
scalar Mesh.node[0].queue[1] rxBytes:sum 0
attr interpolationmode none
attr title "received packet byte length, sum"
attr unit bytes
statistic Mesh.node[0].queue[1] rxBytes:histogram
field count 0
field mean nan
field stddev nan
field min nan
field max nan
field sum 0
field sqrsum 0
attr interpolationmode none
attr title "received packet byte length, histogram"
attr unit bytes
bin	-inf	0
bin	0	0
bin	1	0
scalar Mesh.node[0].queue[1] txBytes:count 0
attr interpolationmode none
attr title "transmitting packet byte length, count"
attr unit bytes
scalar Mesh.node[0].queue[1] txBytes:sum 0
attr interpolationmode none
attr title "transmitting packet byte length, sum"
attr unit bytes
statistic Mesh.node[0].queue[1] txBytes:histogram
field count 0
field mean nan
field stddev nan
field min nan
field max nan
field sum 0
field sqrsum 0
attr interpolationmode none
attr title "transmitting packet byte length, histogram"
attr unit bytes
bin	-inf	0
bin	0	0
bin	1	0
scalar Mesh.node[0].queue[1] busy:timeavg 0
attr interpolationmode sample-hold
attr title "server busy state, timeavg"
scalar Mesh.node[0].queue[1] qlen:timeavg 0
attr interpolationmode sample-hold
attr title "queue length, timeavg"
scalar Mesh.node[0].queue[1] qlen:max 0
attr interpolationmode sample-hold
attr title "queue length, max"
scalar Mesh.node[0].queue[1] drop:count 0
attr interpolationmode none
attr title "dropped packet byte length, count"
attr unit bytes
scalar Mesh.node[0].queue[1] drop:sum 0
attr interpolationmode none
attr title "dropped packet byte length, sum"
attr unit bytes
scalar Mesh.node[0].queue[2] rxBytes:count 1947
attr interpolationmode none
attr title "received packet byte length, count"
attr unit bytes
scalar Mesh.node[0].queue[2] rxBytes:sum 7974912
attr interpolationmode none
attr title "received packet byte length, sum"
attr unit bytes
statistic Mesh.node[0].queue[2] rxBytes:histogram
field count 1947
field mean 4096
field stddev 0
field min 4096
field max 4096
field sum 7974912
field sqrsum 32665239552
attr interpolationmode none
attr title "received packet byte length, histogram"
attr unit bytes
bin	-inf	0
bin	4095	0
bin	4096	1947
bin	4097	0
scalar Mesh.node[0].queue[2] txBytes:count 76
attr interpolationmode none
attr title "transmitting packet byte length, count"
attr unit bytes
scalar Mesh.node[0].queue[2] txBytes:sum 311296
attr interpolationmode none
attr title "transmitting packet byte length, sum"
attr unit bytes
statistic Mesh.node[0].queue[2] txBytes:histogram
field count 76
field mean 4096
field stddev 0
field min 4096
field max 4096
field sum 311296
field sqrsum 1275068416
attr interpolationmode none
attr title "transmitting packet byte length, histogram"
attr unit bytes
bin	-inf	0
bin	4095	0
bin	4096	76
bin	4097	0
scalar Mesh.node[0].queue[2] busy:timeavg 2.3499413791754e-005
attr interpolationmode sample-hold
attr title "server busy state, timeavg"
scalar Mesh.node[0].queue[2] qlen:timeavg 0
attr interpolationmode sample-hold
attr title "queue length, timeavg"
scalar Mesh.node[0].queue[2] qlen:max 0
attr interpolationmode sample-hold
attr title "queue length, max"
scalar Mesh.node[0].queue[2] drop:count 0
attr interpolationmode none
attr title "dropped packet byte length, count"
attr unit bytes
scalar Mesh.node[0].queue[2] drop:sum 0
attr interpolationmode none
attr title "dropped packet byte length, sum"
attr unit bytes
scalar Mesh.node[0].queue[3] rxBytes:count 0
attr interpolationmode none
attr title "received packet byte length, count"
attr unit bytes
scalar Mesh.node[0].queue[3] rxBytes:sum 0
attr interpolationmode none
attr title "received packet byte length, sum"
attr unit bytes
statistic Mesh.node[0].queue[3] rxBytes:histogram
field count 0
field mean nan
field stddev nan
field min nan
field max nan
field sum 0
field sqrsum 0
attr interpolationmode none
attr title "received packet byte length, histogram"
attr unit bytes
bin	-inf	0
bin	0	0
bin	1	0
scalar Mesh.node[0].queue[3] txBytes:count 0
attr interpolationmode none
attr title "transmitting packet byte length, count"
attr unit bytes
scalar Mesh.node[0].queue[3] txBytes:sum 0
attr interpolationmode none
attr title "transmitting packet byte length, sum"
attr unit bytes
statistic Mesh.node[0].queue[3] txBytes:histogram
field count 0
field mean nan
field stddev nan
field min nan
field max nan
field sum 0
field sqrsum 0
attr interpolationmode none
attr title "transmitting packet byte length, histogram"
attr unit bytes
bin	-inf	0
bin	0	0
bin	1	0
scalar Mesh.node[0].queue[3] busy:timeavg 0
attr interpolationmode sample-hold
attr title "server busy state, timeavg"
scalar Mesh.node[0].queue[3] qlen:timeavg 0
attr interpolationmode sample-hold
attr title "queue length, timeavg"
scalar Mesh.node[0].queue[3] qlen:max 0
attr interpolationmode sample-hold
attr title "queue length, max"
scalar Mesh.node[0].queue[3] drop:count 0
attr interpolationmode none
attr title "dropped packet byte length, count"
attr unit bytes
scalar Mesh.node[0].queue[3] drop:sum 0
attr interpolationmode none
attr title "dropped packet byte length, sum"
attr unit bytes
scalar Mesh.node[1].app hopCount:mean nan
attr interpolationmode none
attr title "hop count of arrived packets, mean"
scalar Mesh.node[1].app hopCount:max nan
attr interpolationmode none
attr title "hop count of arrived packets, max"
scalar Mesh.node[1].app endToEndDelay:mean nan
attr interpolationmode none
attr title "end-to-end delay of arrived packets, mean"
attr unit s
scalar Mesh.node[1].app endToEndDelay:max nan
attr interpolationmode none
attr title "end-to-end delay of arrived packets, max"
attr unit s
statistic Mesh.node[1].routing outputIf:histogram
field count 2081
field mean 2.9356078808265
field stddev 0.24550914132945
field min 2
field max 3
field sum 6109
field sqrsum 18059
attr interpolationmode none
attr title "output interface for each routed packet, histogram"
bin	-inf	0
bin	1	0
bin	2	134
bin	3	1947
bin	4	0
scalar Mesh.node[1].routing drop:count 0
attr interpolationmode none
attr title "dropped packet byte length, count"
attr unit bytes
scalar Mesh.node[1].routing drop:sum 0
attr interpolationmode none
attr title "dropped packet byte length, sum"
attr unit bytes
scalar Mesh.node[1].queue[0] rxBytes:count 294
attr interpolationmode none
attr title "received packet byte length, count"
attr unit bytes
scalar Mesh.node[1].queue[0] rxBytes:sum 1204224
attr interpolationmode none
attr title "received packet byte length, sum"
attr unit bytes
statistic Mesh.node[1].queue[0] rxBytes:histogram
field count 294
field mean 4096
field stddev 0
field min 4096
field max 4096
field sum 1204224
field sqrsum 4932501504
attr interpolationmode none
attr title "received packet byte length, histogram"
attr unit bytes
bin	-inf	0
bin	4095	0
bin	4096	294
bin	4097	0
scalar Mesh.node[1].queue[0] txBytes:count 0
attr interpolationmode none
attr title "transmitting packet byte length, count"
attr unit bytes
scalar Mesh.node[1].queue[0] txBytes:sum 0
attr interpolationmode none
attr title "transmitting packet byte length, sum"
attr unit bytes
statistic Mesh.node[1].queue[0] txBytes:histogram
field count 0
field mean nan
field stddev nan
field min nan
field max nan
field sum 0
field sqrsum 0
attr interpolationmode none
attr title "transmitting packet byte length, histogram"
attr unit bytes
bin	-inf	0
bin	0	0
bin	1	0
scalar Mesh.node[1].queue[0] busy:timeavg 0
attr interpolationmode sample-hold
attr title "server busy state, timeavg"
scalar Mesh.node[1].queue[0] qlen:timeavg 0
attr interpolationmode sample-hold
attr title "queue length, timeavg"
scalar Mesh.node[1].queue[0] qlen:max 0
attr interpolationmode sample-hold
attr title "queue length, max"
scalar Mesh.node[1].queue[0] drop:count 0
attr interpolationmode none
attr title "dropped packet byte length, count"
attr unit bytes
scalar Mesh.node[1].queue[0] drop:sum 0
attr interpolationmode none
attr title "dropped packet byte length, sum"
attr unit bytes
scalar Mesh.node[1].queue[1] rxBytes:count 0
attr interpolationmode none
attr title "received packet byte length, count"
attr unit bytes
scalar Mesh.node[1].queue[1] rxBytes:sum 0
attr interpolationmode none
attr title "received packet byte length, sum"
attr unit bytes
statistic Mesh.node[1].queue[1] rxBytes:histogram
field count 0
field mean nan
field stddev nan
field min nan
field max nan
field sum 0
field sqrsum 0
attr interpolationmode none
attr title "received packet byte length, histogram"
attr unit bytes
bin	-inf	0
bin	0	0
bin	1	0
scalar Mesh.node[1].queue[1] txBytes:count 0
attr interpolationmode none
attr title "transmitting packet byte length, count"
attr unit bytes
scalar Mesh.node[1].queue[1] txBytes:sum 0
attr interpolationmode none
attr title "transmitting packet byte length, sum"
attr unit bytes
statistic Mesh.node[1].queue[1] txBytes:histogram
field count 0
field mean nan
field stddev nan
field min nan
field max nan
field sum 0
field sqrsum 0
attr interpolationmode none
attr title "transmitting packet byte length, histogram"
attr unit bytes
bin	-inf	0
bin	0	0
bin	1	0
scalar Mesh.node[1].queue[1] busy:timeavg 0
attr interpolationmode sample-hold
attr title "server busy state, timeavg"
scalar Mesh.node[1].queue[1] qlen:timeavg 0
attr interpolationmode sample-hold
attr title "queue length, timeavg"
scalar Mesh.node[1].queue[1] qlen:max 0
attr interpolationmode sample-hold
attr title "queue length, max"
scalar Mesh.node[1].queue[1] drop:count 0
attr interpolationmode none
attr title "dropped packet byte length, count"
attr unit bytes
scalar Mesh.node[1].queue[1] drop:sum 0
attr interpolationmode none
attr title "dropped packet byte length, sum"
attr unit bytes
scalar Mesh.node[1].queue[2] rxBytes:count 1617
attr interpolationmode none
attr title "received packet byte length, count"
attr unit bytes
scalar Mesh.node[1].queue[2] rxBytes:sum 6623232
attr interpolationmode none
attr title "received packet byte length, sum"
attr unit bytes
statistic Mesh.node[1].queue[2] rxBytes:histogram
field count 1617
field mean 4096
field stddev 0
field min 4096
field max 4096
field sum 6623232
field sqrsum 27128758272
attr interpolationmode none
attr title "received packet byte length, histogram"
attr unit bytes
bin	-inf	0
bin	4095	0
bin	4096	1617
bin	4097	0
scalar Mesh.node[1].queue[2] txBytes:count 134
attr interpolationmode none
attr title "transmitting packet byte length, count"
attr unit bytes
scalar Mesh.node[1].queue[2] txBytes:sum 548864
attr interpolationmode none
attr title "transmitting packet byte length, sum"
attr unit bytes
statistic Mesh.node[1].queue[2] txBytes:histogram
field count 134
field mean 4096
field stddev 0
field min 4096
field max 4096
field sum 548864
field sqrsum 2248146944
attr interpolationmode none
attr title "transmitting packet byte length, histogram"
attr unit bytes
bin	-inf	0
bin	4095	0
bin	4096	134
bin	4097	0
scalar Mesh.node[1].queue[2] busy:timeavg 4.1433176948618e-005
attr interpolationmode sample-hold
attr title "server busy state, timeavg"
scalar Mesh.node[1].queue[2] qlen:timeavg 0
attr interpolationmode sample-hold
attr title "queue length, timeavg"
scalar Mesh.node[1].queue[2] qlen:max 0
attr interpolationmode sample-hold
attr title "queue length, max"
scalar Mesh.node[1].queue[2] drop:count 0
attr interpolationmode none
attr title "dropped packet byte length, count"
attr unit bytes
scalar Mesh.node[1].queue[2] drop:sum 0
attr interpolationmode none
attr title "dropped packet byte length, sum"
attr unit bytes
scalar Mesh.node[1].queue[3] rxBytes:count 76
attr interpolationmode none
attr title "received packet byte length, count"
attr unit bytes
scalar Mesh.node[1].queue[3] rxBytes:sum 311296
attr interpolationmode none
attr title "received packet byte length, sum"
attr unit bytes
statistic Mesh.node[1].queue[3] rxBytes:histogram
field count 76
field mean 4096
field stddev 0
field min 4096
field max 4096
field sum 311296
field sqrsum 1275068416
attr interpolationmode none
attr title "received packet byte length, histogram"
attr unit bytes
bin	-inf	0
bin	4095	0
bin	4096	76
bin	4097	0
scalar Mesh.node[1].queue[3] txBytes:count 1947
attr interpolationmode none
attr title "transmitting packet byte length, count"
attr unit bytes
scalar Mesh.node[1].queue[3] txBytes:sum 7974912
attr interpolationmode none
attr title "transmitting packet byte length, sum"
attr unit bytes
statistic Mesh.node[1].queue[3] txBytes:histogram
field count 1947
field mean 4096
field stddev 0
field min 4096
field max 4096
field sum 7974912
field sqrsum 32665239552
attr interpolationmode none
attr title "transmitting packet byte length, histogram"
attr unit bytes
bin	-inf	0
bin	4095	0
bin	4096	1947
bin	4097	0
scalar Mesh.node[1].queue[3] busy:timeavg 0.00060201787700718
attr interpolationmode sample-hold
attr title "server busy state, timeavg"
scalar Mesh.node[1].queue[3] qlen:timeavg 0
attr interpolationmode sample-hold
attr title "queue length, timeavg"
scalar Mesh.node[1].queue[3] qlen:max 0
attr interpolationmode sample-hold
attr title "queue length, max"
scalar Mesh.node[1].queue[3] drop:count 0
attr interpolationmode none
attr title "dropped packet byte length, count"
attr unit bytes
scalar Mesh.node[1].queue[3] drop:sum 0
attr interpolationmode none
attr title "dropped packet byte length, sum"
attr unit bytes
scalar Mesh.node[2].app hopCount:mean nan
attr interpolationmode none
attr title "hop count of arrived packets, mean"
scalar Mesh.node[2].app hopCount:max nan
attr interpolationmode none
attr title "hop count of arrived packets, max"
scalar Mesh.node[2].app endToEndDelay:mean nan
attr interpolationmode none
attr title "end-to-end delay of arrived packets, mean"
attr unit s
scalar Mesh.node[2].app endToEndDelay:max nan
attr interpolationmode none
attr title "end-to-end delay of arrived packets, max"
attr unit s
statistic Mesh.node[2].routing outputIf:histogram
field count 1822
field mean 2.8874862788145
field stddev 0.31608419550403
field min 2
field max 3
field sum 5261
field sqrsum 15373
attr interpolationmode none
attr title "output interface for each routed packet, histogram"
bin	-inf	0
bin	1	0
bin	2	205
bin	3	1617
bin	4	0
scalar Mesh.node[2].routing drop:count 0
attr interpolationmode none
attr title "dropped packet byte length, count"
attr unit bytes
scalar Mesh.node[2].routing drop:sum 0
attr interpolationmode none
attr title "dropped packet byte length, sum"
attr unit bytes
scalar Mesh.node[2].queue[0] rxBytes:count 282
attr interpolationmode none
attr title "received packet byte length, count"
attr unit bytes
scalar Mesh.node[2].queue[0] rxBytes:sum 1155072
attr interpolationmode none
attr title "received packet byte length, sum"
attr unit bytes
statistic Mesh.node[2].queue[0] rxBytes:histogram
field count 282
field mean 4096
field stddev 0
field min 4096
field max 4096
field sum 1155072
field sqrsum 4731174912
attr interpolationmode none
attr title "received packet byte length, histogram"
attr unit bytes
bin	-inf	0
bin	4095	0
bin	4096	282
bin	4097	0
scalar Mesh.node[2].queue[0] txBytes:count 0
attr interpolationmode none
attr title "transmitting packet byte length, count"
attr unit bytes
scalar Mesh.node[2].queue[0] txBytes:sum 0
attr interpolationmode none
attr title "transmitting packet byte length, sum"
attr unit bytes
statistic Mesh.node[2].queue[0] txBytes:histogram
field count 0
field mean nan
field stddev nan
field min nan
field max nan
field sum 0
field sqrsum 0
attr interpolationmode none
attr title "transmitting packet byte length, histogram"
attr unit bytes
bin	-inf	0
bin	0	0
bin	1	0
scalar Mesh.node[2].queue[0] busy:timeavg 0
attr interpolationmode sample-hold
attr title "server busy state, timeavg"
scalar Mesh.node[2].queue[0] qlen:timeavg 0
attr interpolationmode sample-hold
attr title "queue length, timeavg"
scalar Mesh.node[2].queue[0] qlen:max 0
attr interpolationmode sample-hold
attr title "queue length, max"
scalar Mesh.node[2].queue[0] drop:count 0
attr interpolationmode none
attr title "dropped packet byte length, count"
attr unit bytes
scalar Mesh.node[2].queue[0] drop:sum 0
attr interpolationmode none
attr title "dropped packet byte length, sum"
attr unit bytes
scalar Mesh.node[2].queue[1] rxBytes:count 0
attr interpolationmode none
attr title "received packet byte length, count"
attr unit bytes
scalar Mesh.node[2].queue[1] rxBytes:sum 0
attr interpolationmode none
attr title "received packet byte length, sum"
attr unit bytes
statistic Mesh.node[2].queue[1] rxBytes:histogram
field count 0
field mean nan
field stddev nan
field min nan
field max nan
field sum 0
field sqrsum 0
attr interpolationmode none
attr title "received packet byte length, histogram"
attr unit bytes
bin	-inf	0
bin	0	0
bin	1	0
scalar Mesh.node[2].queue[1] txBytes:count 0
attr interpolationmode none
attr title "transmitting packet byte length, count"
attr unit bytes
scalar Mesh.node[2].queue[1] txBytes:sum 0
attr interpolationmode none
attr title "transmitting packet byte length, sum"
attr unit bytes
statistic Mesh.node[2].queue[1] txBytes:histogram
field count 0
field mean nan
field stddev nan
field min nan
field max nan
field sum 0
field sqrsum 0
attr interpolationmode none
attr title "transmitting packet byte length, histogram"
attr unit bytes
bin	-inf	0
bin	0	0
bin	1	0
scalar Mesh.node[2].queue[1] busy:timeavg 0
attr interpolationmode sample-hold
attr title "server busy state, timeavg"
scalar Mesh.node[2].queue[1] qlen:timeavg 0
attr interpolationmode sample-hold
attr title "queue length, timeavg"
scalar Mesh.node[2].queue[1] qlen:max 0
attr interpolationmode sample-hold
attr title "queue length, max"
scalar Mesh.node[2].queue[1] drop:count 0
attr interpolationmode none
attr title "dropped packet byte length, count"
attr unit bytes
scalar Mesh.node[2].queue[1] drop:sum 0
attr interpolationmode none
attr title "dropped packet byte length, sum"
attr unit bytes
scalar Mesh.node[2].queue[2] rxBytes:count 1299
attr interpolationmode none
attr title "received packet byte length, count"
attr unit bytes
scalar Mesh.node[2].queue[2] rxBytes:sum 5320704
attr interpolationmode none
attr title "received packet byte length, sum"
attr unit bytes
statistic Mesh.node[2].queue[2] rxBytes:histogram
field count 1299
field mean 4096
field stddev 0
field min 4096
field max 4096
field sum 5320704
field sqrsum 21793603584
attr interpolationmode none
attr title "received packet byte length, histogram"
attr unit bytes
bin	-inf	0
bin	4095	0
bin	4096	1299
bin	4097	0
scalar Mesh.node[2].queue[2] txBytes:count 205
attr interpolationmode none
attr title "transmitting packet byte length, count"
attr unit bytes
scalar Mesh.node[2].queue[2] txBytes:sum 839680
attr interpolationmode none
attr title "transmitting packet byte length, sum"
attr unit bytes
statistic Mesh.node[2].queue[2] txBytes:histogram
field count 205
field mean 4096
field stddev 0
field min 4096
field max 4096
field sum 839680
field sqrsum 3439329280
attr interpolationmode none
attr title "transmitting packet byte length, histogram"
attr unit bytes
bin	-inf	0
bin	4095	0
bin	4096	205
bin	4097	0
scalar Mesh.node[2].queue[2] busy:timeavg 6.3386576675125e-005
attr interpolationmode sample-hold
attr title "server busy state, timeavg"
scalar Mesh.node[2].queue[2] qlen:timeavg 0
attr interpolationmode sample-hold
attr title "queue length, timeavg"
scalar Mesh.node[2].queue[2] qlen:max 0
attr interpolationmode sample-hold
attr title "queue length, max"
scalar Mesh.node[2].queue[2] drop:count 0
attr interpolationmode none
attr title "dropped packet byte length, count"
attr unit bytes
scalar Mesh.node[2].queue[2] drop:sum 0
attr interpolationmode none
attr title "dropped packet byte length, sum"
attr unit bytes
scalar Mesh.node[2].queue[3] rxBytes:count 134
attr interpolationmode none
attr title "received packet byte length, count"
attr unit bytes
scalar Mesh.node[2].queue[3] rxBytes:sum 548864
attr interpolationmode none
attr title "received packet byte length, sum"
attr unit bytes
statistic Mesh.node[2].queue[3] rxBytes:histogram
field count 134
field mean 4096
field stddev 0
field min 4096
field max 4096
field sum 548864
field sqrsum 2248146944
attr interpolationmode none
attr title "received packet byte length, histogram"
attr unit bytes
bin	-inf	0
bin	4095	0
bin	4096	134
bin	4097	0
scalar Mesh.node[2].queue[3] txBytes:count 1617
attr interpolationmode none
attr title "transmitting packet byte length, count"
attr unit bytes
scalar Mesh.node[2].queue[3] txBytes:sum 6623232
attr interpolationmode none
attr title "transmitting packet byte length, sum"
attr unit bytes
statistic Mesh.node[2].queue[3] txBytes:histogram
field count 1617
field mean 4096
field stddev 0
field min 4096
field max 4096
field sum 6623232
field sqrsum 27128758272
attr interpolationmode none
attr title "transmitting packet byte length, histogram"
attr unit bytes
bin	-inf	0
bin	4095	0
bin	4096	1617
bin	4097	0
scalar Mesh.node[2].queue[3] busy:timeavg 0.00049998094870088
attr interpolationmode sample-hold
attr title "server busy state, timeavg"
scalar Mesh.node[2].queue[3] qlen:timeavg 0
attr interpolationmode sample-hold
attr title "queue length, timeavg"
scalar Mesh.node[2].queue[3] qlen:max 0
attr interpolationmode sample-hold
attr title "queue length, max"
scalar Mesh.node[2].queue[3] drop:count 0
attr interpolationmode none
attr title "dropped packet byte length, count"
attr unit bytes
scalar Mesh.node[2].queue[3] drop:sum 0
attr interpolationmode none
attr title "dropped packet byte length, sum"
attr unit bytes
scalar Mesh.node[3].app hopCount:mean nan
attr interpolationmode none
attr title "hop count of arrived packets, mean"
scalar Mesh.node[3].app hopCount:max nan
attr interpolationmode none
attr title "hop count of arrived packets, max"
scalar Mesh.node[3].app endToEndDelay:mean nan
attr interpolationmode none
attr title "end-to-end delay of arrived packets, mean"
attr unit s
scalar Mesh.node[3].app endToEndDelay:max nan
attr interpolationmode none
attr title "end-to-end delay of arrived packets, max"
attr unit s
statistic Mesh.node[3].routing outputIf:histogram
field count 1684
field mean 2.4780285035629
field stddev 1.0631255432712
field min 0
field max 3
field sum 4173
field sqrsum 12243
attr interpolationmode none
attr title "output interface for each routed packet, histogram"
bin	-inf	0
bin	0	247
bin	1	0
bin	2	138
bin	3	1299
bin	4	0
scalar Mesh.node[3].routing drop:count 0
attr interpolationmode none
attr title "dropped packet byte length, count"
attr unit bytes
scalar Mesh.node[3].routing drop:sum 0
attr interpolationmode none
attr title "dropped packet byte length, sum"
attr unit bytes
scalar Mesh.node[3].queue[0] rxBytes:count 281
attr interpolationmode none
attr title "received packet byte length, count"
attr unit bytes
scalar Mesh.node[3].queue[0] rxBytes:sum 1150976
attr interpolationmode none
attr title "received packet byte length, sum"
attr unit bytes
statistic Mesh.node[3].queue[0] rxBytes:histogram
field count 281
field mean 4096
field stddev 0
field min 4096
field max 4096
field sum 1150976
field sqrsum 4714397696
attr interpolationmode none
attr title "received packet byte length, histogram"
attr unit bytes
bin	-inf	0
bin	4095	0
bin	4096	281
bin	4097	0
scalar Mesh.node[3].queue[0] txBytes:count 247
attr interpolationmode none
attr title "transmitting packet byte length, count"
attr unit bytes
scalar Mesh.node[3].queue[0] txBytes:sum 1011712
attr interpolationmode none
attr title "transmitting packet byte length, sum"
attr unit bytes
statistic Mesh.node[3].queue[0] txBytes:histogram
field count 247
field mean 4096
field stddev 0
field min 4096
field max 4096
field sum 1011712
field sqrsum 4143972352
attr interpolationmode none
attr title "transmitting packet byte length, histogram"
attr unit bytes
bin	-inf	0
bin	4095	0
bin	4096	247
bin	4097	0
scalar Mesh.node[3].queue[0] busy:timeavg 7.6373094823199e-005
attr interpolationmode sample-hold
attr title "server busy state, timeavg"
scalar Mesh.node[3].queue[0] qlen:timeavg 0
attr interpolationmode sample-hold
attr title "queue length, timeavg"
scalar Mesh.node[3].queue[0] qlen:max 0
attr interpolationmode sample-hold
attr title "queue length, max"
scalar Mesh.node[3].queue[0] drop:count 0
attr interpolationmode none
attr title "dropped packet byte length, count"
attr unit bytes
scalar Mesh.node[3].queue[0] drop:sum 0
attr interpolationmode none
attr title "dropped packet byte length, sum"
attr unit bytes
scalar Mesh.node[3].queue[1] rxBytes:count 0
attr interpolationmode none
attr title "received packet byte length, count"
attr unit bytes
scalar Mesh.node[3].queue[1] rxBytes:sum 0
attr interpolationmode none
attr title "received packet byte length, sum"
attr unit bytes
statistic Mesh.node[3].queue[1] rxBytes:histogram
field count 0
field mean nan
field stddev nan
field min nan
field max nan
field sum 0
field sqrsum 0
attr interpolationmode none
attr title "received packet byte length, histogram"
attr unit bytes
bin	-inf	0
bin	0	0
bin	1	0
scalar Mesh.node[3].queue[1] txBytes:count 0
attr interpolationmode none
attr title "transmitting packet byte length, count"
attr unit bytes
scalar Mesh.node[3].queue[1] txBytes:sum 0
attr interpolationmode none
attr title "transmitting packet byte length, sum"
attr unit bytes
statistic Mesh.node[3].queue[1] txBytes:histogram
field count 0
field mean nan
field stddev nan
field min nan
field max nan
field sum 0
field sqrsum 0
attr interpolationmode none
attr title "transmitting packet byte length, histogram"
attr unit bytes
bin	-inf	0
bin	0	0
bin	1	0
scalar Mesh.node[3].queue[1] busy:timeavg 0
attr interpolationmode sample-hold
attr title "server busy state, timeavg"
scalar Mesh.node[3].queue[1] qlen:timeavg 0
attr interpolationmode sample-hold
attr title "queue length, timeavg"
scalar Mesh.node[3].queue[1] qlen:max 0
attr interpolationmode sample-hold
attr title "queue length, max"
scalar Mesh.node[3].queue[1] drop:count 0
attr interpolationmode none
attr title "dropped packet byte length, count"
attr unit bytes
scalar Mesh.node[3].queue[1] drop:sum 0
attr interpolationmode none
attr title "dropped packet byte length, sum"
attr unit bytes
scalar Mesh.node[3].queue[2] rxBytes:count 1097
attr interpolationmode none
attr title "received packet byte length, count"
attr unit bytes
scalar Mesh.node[3].queue[2] rxBytes:sum 4493312
attr interpolationmode none
attr title "received packet byte length, sum"
attr unit bytes
statistic Mesh.node[3].queue[2] rxBytes:histogram
field count 1097
field mean 4096
field stddev 0
field min 4096
field max 4096
field sum 4493312
field sqrsum 18404605952
attr interpolationmode none
attr title "received packet byte length, histogram"
attr unit bytes
bin	-inf	0
bin	4095	0
bin	4096	1097
bin	4097	0
scalar Mesh.node[3].queue[2] txBytes:count 138
attr interpolationmode none
attr title "transmitting packet byte length, count"
attr unit bytes
scalar Mesh.node[3].queue[2] txBytes:sum 565248
attr interpolationmode none
attr title "transmitting packet byte length, sum"
attr unit bytes
statistic Mesh.node[3].queue[2] txBytes:histogram
field count 138
field mean 4096
field stddev 0
field min 4096
field max 4096
field sum 565248
field sqrsum 2315255808
attr interpolationmode none
attr title "transmitting packet byte length, histogram"
attr unit bytes
bin	-inf	0
bin	4095	0
bin	4096	138
bin	4097	0
scalar Mesh.node[3].queue[2] busy:timeavg 4.2669988200816e-005
attr interpolationmode sample-hold
attr title "server busy state, timeavg"
scalar Mesh.node[3].queue[2] qlen:timeavg 0
attr interpolationmode sample-hold
attr title "queue length, timeavg"
scalar Mesh.node[3].queue[2] qlen:max 0
attr interpolationmode sample-hold
attr title "queue length, max"
scalar Mesh.node[3].queue[2] drop:count 0
attr interpolationmode none
attr title "dropped packet byte length, count"
attr unit bytes
scalar Mesh.node[3].queue[2] drop:sum 0
attr interpolationmode none
attr title "dropped packet byte length, sum"
attr unit bytes
scalar Mesh.node[3].queue[3] rxBytes:count 205
attr interpolationmode none
attr title "received packet byte length, count"
attr unit bytes
scalar Mesh.node[3].queue[3] rxBytes:sum 839680
attr interpolationmode none
attr title "received packet byte length, sum"
attr unit bytes
statistic Mesh.node[3].queue[3] rxBytes:histogram
field count 205
field mean 4096
field stddev 0
field min 4096
field max 4096
field sum 839680
field sqrsum 3439329280
attr interpolationmode none
attr title "received packet byte length, histogram"
attr unit bytes
bin	-inf	0
bin	4095	0
bin	4096	205
bin	4097	0
scalar Mesh.node[3].queue[3] txBytes:count 1299
attr interpolationmode none
attr title "transmitting packet byte length, count"
attr unit bytes
scalar Mesh.node[3].queue[3] txBytes:sum 5320704
attr interpolationmode none
attr title "transmitting packet byte length, sum"
attr unit bytes
statistic Mesh.node[3].queue[3] txBytes:histogram
field count 1299
field mean 4096
field stddev 0
field min 4096
field max 4096
field sum 5320704
field sqrsum 21793603584
attr interpolationmode none
attr title "transmitting packet byte length, histogram"
attr unit bytes
bin	-inf	0
bin	4095	0
bin	4096	1299
bin	4097	0
scalar Mesh.node[3].queue[3] busy:timeavg 0.00040165445415116
attr interpolationmode sample-hold
attr title "server busy state, timeavg"
scalar Mesh.node[3].queue[3] qlen:timeavg 0
attr interpolationmode sample-hold
attr title "queue length, timeavg"
scalar Mesh.node[3].queue[3] qlen:max 0
attr interpolationmode sample-hold
attr title "queue length, max"
scalar Mesh.node[3].queue[3] drop:count 0
attr interpolationmode none
attr title "dropped packet byte length, count"
attr unit bytes
scalar Mesh.node[3].queue[3] drop:sum 0
attr interpolationmode none
attr title "dropped packet byte length, sum"
attr unit bytes
scalar Mesh.node[4].app hopCount:mean nan
attr interpolationmode none
attr title "hop count of arrived packets, mean"
scalar Mesh.node[4].app hopCount:max nan
attr interpolationmode none
attr title "hop count of arrived packets, max"
scalar Mesh.node[4].app endToEndDelay:mean nan
attr interpolationmode none
attr title "end-to-end delay of arrived packets, mean"
attr unit s
scalar Mesh.node[4].app endToEndDelay:max nan
attr interpolationmode none
attr title "end-to-end delay of arrived packets, max"
attr unit s
statistic Mesh.node[4].routing outputIf:histogram
field count 1353
field mean 2.4323725055432
field stddev 1.1754585169381
field min 0
field max 3
field sum 3291
field sqrsum 9873
attr interpolationmode none
attr title "output interface for each routed packet, histogram"
bin	-inf	0
bin	0	256
bin	1	0
bin	2	0
bin	3	1097
bin	4	0
scalar Mesh.node[4].routing drop:count 0
attr interpolationmode none
attr title "dropped packet byte length, count"
attr unit bytes
scalar Mesh.node[4].routing drop:sum 0
attr interpolationmode none
attr title "dropped packet byte length, sum"
attr unit bytes
scalar Mesh.node[4].queue[0] rxBytes:count 285
attr interpolationmode none
attr title "received packet byte length, count"
attr unit bytes
scalar Mesh.node[4].queue[0] rxBytes:sum 1167360
attr interpolationmode none
attr title "received packet byte length, sum"
attr unit bytes
statistic Mesh.node[4].queue[0] rxBytes:histogram
field count 285
field mean 4096
field stddev 0
field min 4096
field max 4096
field sum 1167360
field sqrsum 4781506560
attr interpolationmode none
attr title "received packet byte length, histogram"
attr unit bytes
bin	-inf	0
bin	4095	0
bin	4096	285
bin	4097	0
scalar Mesh.node[4].queue[0] txBytes:count 256
attr interpolationmode none
attr title "transmitting packet byte length, count"
attr unit bytes
scalar Mesh.node[4].queue[0] txBytes:sum 1048576
attr interpolationmode none
attr title "transmitting packet byte length, sum"
attr unit bytes
statistic Mesh.node[4].queue[0] txBytes:histogram
field count 256
field mean 4096
field stddev 0
field min 4096
field max 4096
field sum 1048576
field sqrsum 4294967296
attr interpolationmode none
attr title "transmitting packet byte length, histogram"
attr unit bytes
bin	-inf	0
bin	4095	0
bin	4096	256
bin	4097	0
scalar Mesh.node[4].queue[0] busy:timeavg 7.9155920140644e-005
attr interpolationmode sample-hold
attr title "server busy state, timeavg"
scalar Mesh.node[4].queue[0] qlen:timeavg 0
attr interpolationmode sample-hold
attr title "queue length, timeavg"
scalar Mesh.node[4].queue[0] qlen:max 0
attr interpolationmode sample-hold
attr title "queue length, max"
scalar Mesh.node[4].queue[0] drop:count 0
attr interpolationmode none
attr title "dropped packet byte length, count"
attr unit bytes
scalar Mesh.node[4].queue[0] drop:sum 0
attr interpolationmode none
attr title "dropped packet byte length, sum"
attr unit bytes
scalar Mesh.node[4].queue[1] rxBytes:count 0
attr interpolationmode none
attr title "received packet byte length, count"
attr unit bytes
scalar Mesh.node[4].queue[1] rxBytes:sum 0
attr interpolationmode none
attr title "received packet byte length, sum"
attr unit bytes
statistic Mesh.node[4].queue[1] rxBytes:histogram
field count 0
field mean nan
field stddev nan
field min nan
field max nan
field sum 0
field sqrsum 0
attr interpolationmode none
attr title "received packet byte length, histogram"
attr unit bytes
bin	-inf	0
bin	0	0
bin	1	0
scalar Mesh.node[4].queue[1] txBytes:count 0
attr interpolationmode none
attr title "transmitting packet byte length, count"
attr unit bytes
scalar Mesh.node[4].queue[1] txBytes:sum 0
attr interpolationmode none
attr title "transmitting packet byte length, sum"
attr unit bytes
statistic Mesh.node[4].queue[1] txBytes:histogram
field count 0
field mean nan
field stddev nan
field min nan
field max nan
field sum 0
field sqrsum 0
attr interpolationmode none
attr title "transmitting packet byte length, histogram"
attr unit bytes
bin	-inf	0
bin	0	0
bin	1	0
scalar Mesh.node[4].queue[1] busy:timeavg 0
attr interpolationmode sample-hold
attr title "server busy state, timeavg"
scalar Mesh.node[4].queue[1] qlen:timeavg 0
attr interpolationmode sample-hold
attr title "queue length, timeavg"
scalar Mesh.node[4].queue[1] qlen:max 0
attr interpolationmode sample-hold
attr title "queue length, max"
scalar Mesh.node[4].queue[1] drop:count 0
attr interpolationmode none
attr title "dropped packet byte length, count"
attr unit bytes
scalar Mesh.node[4].queue[1] drop:sum 0
attr interpolationmode none
attr title "dropped packet byte length, sum"
attr unit bytes
scalar Mesh.node[4].queue[2] rxBytes:count 808
attr interpolationmode none
attr title "received packet byte length, count"
attr unit bytes
scalar Mesh.node[4].queue[2] rxBytes:sum 3309568
attr interpolationmode none
attr title "received packet byte length, sum"
attr unit bytes
statistic Mesh.node[4].queue[2] rxBytes:histogram
field count 808
field mean 4096
field stddev 0
field min 4096
field max 4096
field sum 3309568
field sqrsum 13555990528
attr interpolationmode none
attr title "received packet byte length, histogram"
attr unit bytes
bin	-inf	0
bin	4095	0
bin	4096	808
bin	4097	0
scalar Mesh.node[4].queue[2] txBytes:count 0
attr interpolationmode none
attr title "transmitting packet byte length, count"
attr unit bytes
scalar Mesh.node[4].queue[2] txBytes:sum 0
attr interpolationmode none
attr title "transmitting packet byte length, sum"
attr unit bytes
statistic Mesh.node[4].queue[2] txBytes:histogram
field count 0
field mean nan
field stddev nan
field min nan
field max nan
field sum 0
field sqrsum 0
attr interpolationmode none
attr title "transmitting packet byte length, histogram"
attr unit bytes
bin	-inf	0
bin	0	0
bin	1	0
scalar Mesh.node[4].queue[2] busy:timeavg 0
attr interpolationmode sample-hold
attr title "server busy state, timeavg"
scalar Mesh.node[4].queue[2] qlen:timeavg 0
attr interpolationmode sample-hold
attr title "queue length, timeavg"
scalar Mesh.node[4].queue[2] qlen:max 0
attr interpolationmode sample-hold
attr title "queue length, max"
scalar Mesh.node[4].queue[2] drop:count 0
attr interpolationmode none
attr title "dropped packet byte length, count"
attr unit bytes
scalar Mesh.node[4].queue[2] drop:sum 0
attr interpolationmode none
attr title "dropped packet byte length, sum"
attr unit bytes
scalar Mesh.node[4].queue[3] rxBytes:count 138
attr interpolationmode none
attr title "received packet byte length, count"
attr unit bytes
scalar Mesh.node[4].queue[3] rxBytes:sum 565248
attr interpolationmode none
attr title "received packet byte length, sum"
attr unit bytes
statistic Mesh.node[4].queue[3] rxBytes:histogram
field count 138
field mean 4096
field stddev 0
field min 4096
field max 4096
field sum 565248
field sqrsum 2315255808
attr interpolationmode none
attr title "received packet byte length, histogram"
attr unit bytes
bin	-inf	0
bin	4095	0
bin	4096	138
bin	4097	0
scalar Mesh.node[4].queue[3] txBytes:count 1097
attr interpolationmode none
attr title "transmitting packet byte length, count"
attr unit bytes
scalar Mesh.node[4].queue[3] txBytes:sum 4493312
attr interpolationmode none
attr title "transmitting packet byte length, sum"
attr unit bytes
statistic Mesh.node[4].queue[3] txBytes:histogram
field count 1097
field mean 4096
field stddev 0
field min 4096
field max 4096
field sum 4493312
field sqrsum 18404605952
attr interpolationmode none
attr title "transmitting packet byte length, histogram"
attr unit bytes
bin	-inf	0
bin	4095	0
bin	4096	1097
bin	4097	0
scalar Mesh.node[4].queue[3] busy:timeavg 0.00033919548591518
attr interpolationmode sample-hold
attr title "server busy state, timeavg"
scalar Mesh.node[4].queue[3] qlen:timeavg 0
attr interpolationmode sample-hold
attr title "queue length, timeavg"
scalar Mesh.node[4].queue[3] qlen:max 0
attr interpolationmode sample-hold
attr title "queue length, max"
scalar Mesh.node[4].queue[3] drop:count 0
attr interpolationmode none
attr title "dropped packet byte length, count"
attr unit bytes
scalar Mesh.node[4].queue[3] drop:sum 0
attr interpolationmode none
attr title "dropped packet byte length, sum"
attr unit bytes
scalar Mesh.node[5].app hopCount:mean nan
attr interpolationmode none
attr title "hop count of arrived packets, mean"
scalar Mesh.node[5].app hopCount:max nan
attr interpolationmode none
attr title "hop count of arrived packets, max"
scalar Mesh.node[5].app endToEndDelay:mean nan
attr interpolationmode none
attr title "end-to-end delay of arrived packets, mean"
attr unit s
scalar Mesh.node[5].app endToEndDelay:max nan
attr interpolationmode none
attr title "end-to-end delay of arrived packets, max"
attr unit s
statistic Mesh.node[5].routing outputIf:histogram
field count 808
field mean 3
field stddev 0
field min 3
field max 3
field sum 2424
field sqrsum 7272
attr interpolationmode none
attr title "output interface for each routed packet, histogram"
bin	-inf	0
bin	2	0
bin	3	808
bin	4	0
scalar Mesh.node[5].routing drop:count 0
attr interpolationmode none
attr title "dropped packet byte length, count"
attr unit bytes
scalar Mesh.node[5].routing drop:sum 0
attr interpolationmode none
attr title "dropped packet byte length, sum"
attr unit bytes
scalar Mesh.node[5].queue[0] rxBytes:count 300
attr interpolationmode none
attr title "received packet byte length, count"
attr unit bytes
scalar Mesh.node[5].queue[0] rxBytes:sum 1228800
attr interpolationmode none
attr title "received packet byte length, sum"
attr unit bytes
statistic Mesh.node[5].queue[0] rxBytes:histogram
field count 300
field mean 4096
field stddev 0
field min 4096
field max 4096
field sum 1228800
field sqrsum 5033164800
attr interpolationmode none
attr title "received packet byte length, histogram"
attr unit bytes
bin	-inf	0
bin	4095	0
bin	4096	300
bin	4097	0
scalar Mesh.node[5].queue[0] txBytes:count 0
attr interpolationmode none
attr title "transmitting packet byte length, count"
attr unit bytes
scalar Mesh.node[5].queue[0] txBytes:sum 0
attr interpolationmode none
attr title "transmitting packet byte length, sum"
attr unit bytes
statistic Mesh.node[5].queue[0] txBytes:histogram
field count 0
field mean nan
field stddev nan
field min nan
field max nan
field sum 0
field sqrsum 0
attr interpolationmode none
attr title "transmitting packet byte length, histogram"
attr unit bytes
bin	-inf	0
bin	0	0
bin	1	0
scalar Mesh.node[5].queue[0] busy:timeavg 0
attr interpolationmode sample-hold
attr title "server busy state, timeavg"
scalar Mesh.node[5].queue[0] qlen:timeavg 0
attr interpolationmode sample-hold
attr title "queue length, timeavg"
scalar Mesh.node[5].queue[0] qlen:max 0
attr interpolationmode sample-hold
attr title "queue length, max"
scalar Mesh.node[5].queue[0] drop:count 0
attr interpolationmode none
attr title "dropped packet byte length, count"
attr unit bytes
scalar Mesh.node[5].queue[0] drop:sum 0
attr interpolationmode none
attr title "dropped packet byte length, sum"
attr unit bytes
scalar Mesh.node[5].queue[1] rxBytes:count 0
attr interpolationmode none
attr title "received packet byte length, count"
attr unit bytes
scalar Mesh.node[5].queue[1] rxBytes:sum 0
attr interpolationmode none
attr title "received packet byte length, sum"
attr unit bytes
statistic Mesh.node[5].queue[1] rxBytes:histogram
field count 0
field mean nan
field stddev nan
field min nan
field max nan
field sum 0
field sqrsum 0
attr interpolationmode none
attr title "received packet byte length, histogram"
attr unit bytes
bin	-inf	0
bin	0	0
bin	1	0
scalar Mesh.node[5].queue[1] txBytes:count 0
attr interpolationmode none
attr title "transmitting packet byte length, count"
attr unit bytes
scalar Mesh.node[5].queue[1] txBytes:sum 0
attr interpolationmode none
attr title "transmitting packet byte length, sum"
attr unit bytes
statistic Mesh.node[5].queue[1] txBytes:histogram
field count 0
field mean nan
field stddev nan
field min nan
field max nan
field sum 0
field sqrsum 0
attr interpolationmode none
attr title "transmitting packet byte length, histogram"
attr unit bytes
bin	-inf	0
bin	0	0
bin	1	0
scalar Mesh.node[5].queue[1] busy:timeavg 0
attr interpolationmode sample-hold
attr title "server busy state, timeavg"
scalar Mesh.node[5].queue[1] qlen:timeavg 0
attr interpolationmode sample-hold
attr title "queue length, timeavg"
scalar Mesh.node[5].queue[1] qlen:max 0
attr interpolationmode sample-hold
attr title "queue length, max"
scalar Mesh.node[5].queue[1] drop:count 0
attr interpolationmode none
attr title "dropped packet byte length, count"
attr unit bytes
scalar Mesh.node[5].queue[1] drop:sum 0
attr interpolationmode none
attr title "dropped packet byte length, sum"
attr unit bytes
scalar Mesh.node[5].queue[2] rxBytes:count 397
attr interpolationmode none
attr title "received packet byte length, count"
attr unit bytes
scalar Mesh.node[5].queue[2] rxBytes:sum 1626112
attr interpolationmode none
attr title "received packet byte length, sum"
attr unit bytes
statistic Mesh.node[5].queue[2] rxBytes:histogram
field count 397
field mean 4096
field stddev 0
field min 4096
field max 4096
field sum 1626112
field sqrsum 6660554752
attr interpolationmode none
attr title "received packet byte length, histogram"
attr unit bytes
bin	-inf	0
bin	4095	0
bin	4096	397
bin	4097	0
scalar Mesh.node[5].queue[2] txBytes:count 0
attr interpolationmode none
attr title "transmitting packet byte length, count"
attr unit bytes
scalar Mesh.node[5].queue[2] txBytes:sum 0
attr interpolationmode none
attr title "transmitting packet byte length, sum"
attr unit bytes
statistic Mesh.node[5].queue[2] txBytes:histogram
field count 0
field mean nan
field stddev nan
field min nan
field max nan
field sum 0
field sqrsum 0
attr interpolationmode none
attr title "transmitting packet byte length, histogram"
attr unit bytes
bin	-inf	0
bin	0	0
bin	1	0
scalar Mesh.node[5].queue[2] busy:timeavg 0
attr interpolationmode sample-hold
attr title "server busy state, timeavg"
scalar Mesh.node[5].queue[2] qlen:timeavg 0
attr interpolationmode sample-hold
attr title "queue length, timeavg"
scalar Mesh.node[5].queue[2] qlen:max 0
attr interpolationmode sample-hold
attr title "queue length, max"
scalar Mesh.node[5].queue[2] drop:count 0
attr interpolationmode none
attr title "dropped packet byte length, count"
attr unit bytes
scalar Mesh.node[5].queue[2] drop:sum 0
attr interpolationmode none
attr title "dropped packet byte length, sum"
attr unit bytes
scalar Mesh.node[5].queue[3] rxBytes:count 0
attr interpolationmode none
attr title "received packet byte length, count"
attr unit bytes
scalar Mesh.node[5].queue[3] rxBytes:sum 0
attr interpolationmode none
attr title "received packet byte length, sum"
attr unit bytes
statistic Mesh.node[5].queue[3] rxBytes:histogram
field count 0
field mean nan
field stddev nan
field min nan
field max nan
field sum 0
field sqrsum 0
attr interpolationmode none
attr title "received packet byte length, histogram"
attr unit bytes
bin	-inf	0
bin	0	0
bin	1	0
scalar Mesh.node[5].queue[3] txBytes:count 808
attr interpolationmode none
attr title "transmitting packet byte length, count"
attr unit bytes
scalar Mesh.node[5].queue[3] txBytes:sum 3309568
attr interpolationmode none
attr title "transmitting packet byte length, sum"
attr unit bytes
statistic Mesh.node[5].queue[3] txBytes:histogram
field count 808
field mean 4096
field stddev 0
field min 4096
field max 4096
field sum 3309568
field sqrsum 13555990528
attr interpolationmode none
attr title "transmitting packet byte length, histogram"
attr unit bytes
bin	-inf	0
bin	4095	0
bin	4096	808
bin	4097	0
scalar Mesh.node[5].queue[3] busy:timeavg 0.00024983587294391
attr interpolationmode sample-hold
attr title "server busy state, timeavg"
scalar Mesh.node[5].queue[3] qlen:timeavg 0
attr interpolationmode sample-hold
attr title "queue length, timeavg"
scalar Mesh.node[5].queue[3] qlen:max 0
attr interpolationmode sample-hold
attr title "queue length, max"
scalar Mesh.node[5].queue[3] drop:count 0
attr interpolationmode none
attr title "dropped packet byte length, count"
attr unit bytes
scalar Mesh.node[5].queue[3] drop:sum 0
attr interpolationmode none
attr title "dropped packet byte length, sum"
attr unit bytes
scalar Mesh.node[6].app hopCount:mean nan
attr interpolationmode none
attr title "hop count of arrived packets, mean"
scalar Mesh.node[6].app hopCount:max nan
attr interpolationmode none
attr title "hop count of arrived packets, max"
scalar Mesh.node[6].app endToEndDelay:mean nan
attr interpolationmode none
attr title "end-to-end delay of arrived packets, mean"
attr unit s
scalar Mesh.node[6].app endToEndDelay:max nan
attr interpolationmode none
attr title "end-to-end delay of arrived packets, max"
attr unit s
statistic Mesh.node[6].routing outputIf:histogram
field count 397
field mean 3
field stddev 0
field min 3
field max 3
field sum 1191
field sqrsum 3573
attr interpolationmode none
attr title "output interface for each routed packet, histogram"
bin	-inf	0
bin	2	0
bin	3	397
bin	4	0
scalar Mesh.node[6].routing drop:count 0
attr interpolationmode none
attr title "dropped packet byte length, count"
attr unit bytes
scalar Mesh.node[6].routing drop:sum 0
attr interpolationmode none
attr title "dropped packet byte length, sum"
attr unit bytes
scalar Mesh.node[6].queue[0] rxBytes:count 295
attr interpolationmode none
attr title "received packet byte length, count"
attr unit bytes
scalar Mesh.node[6].queue[0] rxBytes:sum 1208320
attr interpolationmode none
attr title "received packet byte length, sum"
attr unit bytes
statistic Mesh.node[6].queue[0] rxBytes:histogram
field count 295
field mean 4096
field stddev 0
field min 4096
field max 4096
field sum 1208320
field sqrsum 4949278720
attr interpolationmode none
attr title "received packet byte length, histogram"
attr unit bytes
bin	-inf	0
bin	4095	0
bin	4096	295
bin	4097	0
scalar Mesh.node[6].queue[0] txBytes:count 0
attr interpolationmode none
attr title "transmitting packet byte length, count"
attr unit bytes
scalar Mesh.node[6].queue[0] txBytes:sum 0
attr interpolationmode none
attr title "transmitting packet byte length, sum"
attr unit bytes
statistic Mesh.node[6].queue[0] txBytes:histogram
field count 0
field mean nan
field stddev nan
field min nan
field max nan
field sum 0
field sqrsum 0
attr interpolationmode none
attr title "transmitting packet byte length, histogram"
attr unit bytes
bin	-inf	0
bin	0	0
bin	1	0
scalar Mesh.node[6].queue[0] busy:timeavg 0
attr interpolationmode sample-hold
attr title "server busy state, timeavg"
scalar Mesh.node[6].queue[0] qlen:timeavg 0
attr interpolationmode sample-hold
attr title "queue length, timeavg"
scalar Mesh.node[6].queue[0] qlen:max 0
attr interpolationmode sample-hold
attr title "queue length, max"
scalar Mesh.node[6].queue[0] drop:count 0
attr interpolationmode none
attr title "dropped packet byte length, count"
attr unit bytes
scalar Mesh.node[6].queue[0] drop:sum 0
attr interpolationmode none
attr title "dropped packet byte length, sum"
attr unit bytes
scalar Mesh.node[6].queue[1] rxBytes:count 0
attr interpolationmode none
attr title "received packet byte length, count"
attr unit bytes
scalar Mesh.node[6].queue[1] rxBytes:sum 0
attr interpolationmode none
attr title "received packet byte length, sum"
attr unit bytes
statistic Mesh.node[6].queue[1] rxBytes:histogram
field count 0
field mean nan
field stddev nan
field min nan
field max nan
field sum 0
field sqrsum 0
attr interpolationmode none
attr title "received packet byte length, histogram"
attr unit bytes
bin	-inf	0
bin	0	0
bin	1	0
scalar Mesh.node[6].queue[1] txBytes:count 0
attr interpolationmode none
attr title "transmitting packet byte length, count"
attr unit bytes
scalar Mesh.node[6].queue[1] txBytes:sum 0
attr interpolationmode none
attr title "transmitting packet byte length, sum"
attr unit bytes
statistic Mesh.node[6].queue[1] txBytes:histogram
field count 0
field mean nan
field stddev nan
field min nan
field max nan
field sum 0
field sqrsum 0
attr interpolationmode none
attr title "transmitting packet byte length, histogram"
attr unit bytes
bin	-inf	0
bin	0	0
bin	1	0
scalar Mesh.node[6].queue[1] busy:timeavg 0
attr interpolationmode sample-hold
attr title "server busy state, timeavg"
scalar Mesh.node[6].queue[1] qlen:timeavg 0
attr interpolationmode sample-hold
attr title "queue length, timeavg"
scalar Mesh.node[6].queue[1] qlen:max 0
attr interpolationmode sample-hold
attr title "queue length, max"
scalar Mesh.node[6].queue[1] drop:count 0
attr interpolationmode none
attr title "dropped packet byte length, count"
attr unit bytes
scalar Mesh.node[6].queue[1] drop:sum 0
attr interpolationmode none
attr title "dropped packet byte length, sum"
attr unit bytes
scalar Mesh.node[6].queue[2] rxBytes:count 0
attr interpolationmode none
attr title "received packet byte length, count"
attr unit bytes
scalar Mesh.node[6].queue[2] rxBytes:sum 0
attr interpolationmode none
attr title "received packet byte length, sum"
attr unit bytes
statistic Mesh.node[6].queue[2] rxBytes:histogram
field count 0
field mean nan
field stddev nan
field min nan
field max nan
field sum 0
field sqrsum 0
attr interpolationmode none
attr title "received packet byte length, histogram"
attr unit bytes
bin	-inf	0
bin	0	0
bin	1	0
scalar Mesh.node[6].queue[2] txBytes:count 0
attr interpolationmode none
attr title "transmitting packet byte length, count"
attr unit bytes
scalar Mesh.node[6].queue[2] txBytes:sum 0
attr interpolationmode none
attr title "transmitting packet byte length, sum"
attr unit bytes
statistic Mesh.node[6].queue[2] txBytes:histogram
field count 0
field mean nan
field stddev nan
field min nan
field max nan
field sum 0
field sqrsum 0
attr interpolationmode none
attr title "transmitting packet byte length, histogram"
attr unit bytes
bin	-inf	0
bin	0	0
bin	1	0
scalar Mesh.node[6].queue[2] busy:timeavg 0
attr interpolationmode sample-hold
attr title "server busy state, timeavg"
scalar Mesh.node[6].queue[2] qlen:timeavg 0
attr interpolationmode sample-hold
attr title "queue length, timeavg"
scalar Mesh.node[6].queue[2] qlen:max 0
attr interpolationmode sample-hold
attr title "queue length, max"
scalar Mesh.node[6].queue[2] drop:count 0
attr interpolationmode none
attr title "dropped packet byte length, count"
attr unit bytes
scalar Mesh.node[6].queue[2] drop:sum 0
attr interpolationmode none
attr title "dropped packet byte length, sum"
attr unit bytes
scalar Mesh.node[6].queue[3] rxBytes:count 0
attr interpolationmode none
attr title "received packet byte length, count"
attr unit bytes
scalar Mesh.node[6].queue[3] rxBytes:sum 0
attr interpolationmode none
attr title "received packet byte length, sum"
attr unit bytes
statistic Mesh.node[6].queue[3] rxBytes:histogram
field count 0
field mean nan
field stddev nan
field min nan
field max nan
field sum 0
field sqrsum 0
attr interpolationmode none
attr title "received packet byte length, histogram"
attr unit bytes
bin	-inf	0
bin	0	0
bin	1	0
scalar Mesh.node[6].queue[3] txBytes:count 397
attr interpolationmode none
attr title "transmitting packet byte length, count"
attr unit bytes
scalar Mesh.node[6].queue[3] txBytes:sum 1626112
attr interpolationmode none
attr title "transmitting packet byte length, sum"
attr unit bytes
statistic Mesh.node[6].queue[3] txBytes:histogram
field count 397
field mean 4096
field stddev 0
field min 4096
field max 4096
field sum 1626112
field sqrsum 6660554752
attr interpolationmode none
attr title "transmitting packet byte length, histogram"
attr unit bytes
bin	-inf	0
bin	4095	0
bin	4096	397
bin	4097	0
scalar Mesh.node[6].queue[3] busy:timeavg 0.00012275351678061
attr interpolationmode sample-hold
attr title "server busy state, timeavg"
scalar Mesh.node[6].queue[3] qlen:timeavg 0
attr interpolationmode sample-hold
attr title "queue length, timeavg"
scalar Mesh.node[6].queue[3] qlen:max 0
attr interpolationmode sample-hold
attr title "queue length, max"
scalar Mesh.node[6].queue[3] drop:count 0
attr interpolationmode none
attr title "dropped packet byte length, count"
attr unit bytes
scalar Mesh.node[6].queue[3] drop:sum 0
attr interpolationmode none
attr title "dropped packet byte length, sum"
attr unit bytes
scalar Mesh.node[7].app hopCount:mean nan
attr interpolationmode none
attr title "hop count of arrived packets, mean"
scalar Mesh.node[7].app hopCount:max nan
attr interpolationmode none
attr title "hop count of arrived packets, max"
scalar Mesh.node[7].app endToEndDelay:mean nan
attr interpolationmode none
attr title "end-to-end delay of arrived packets, mean"
attr unit s
scalar Mesh.node[7].app endToEndDelay:max nan
attr interpolationmode none
attr title "end-to-end delay of arrived packets, max"
attr unit s
statistic Mesh.node[7].routing outputIf:histogram
field count 347
field mean 1.1844380403458
field stddev 0.38840107026258
field min 1
field max 2
field sum 411
field sqrsum 539
attr interpolationmode none
attr title "output interface for each routed packet, histogram"
bin	-inf	0
bin	0	0
bin	1	283
bin	2	64
bin	3	0
scalar Mesh.node[7].routing drop:count 0
attr interpolationmode none
attr title "dropped packet byte length, count"
attr unit bytes
scalar Mesh.node[7].routing drop:sum 0
attr interpolationmode none
attr title "dropped packet byte length, sum"
attr unit bytes
scalar Mesh.node[7].queue[0] rxBytes:count 248
attr interpolationmode none
attr title "received packet byte length, count"
attr unit bytes
scalar Mesh.node[7].queue[0] rxBytes:sum 1015808
attr interpolationmode none
attr title "received packet byte length, sum"
attr unit bytes
statistic Mesh.node[7].queue[0] rxBytes:histogram
field count 248
field mean 4096
field stddev 0
field min 4096
field max 4096
field sum 1015808
field sqrsum 4160749568
attr interpolationmode none
attr title "received packet byte length, histogram"
attr unit bytes
bin	-inf	0
bin	4095	0
bin	4096	248
bin	4097	0
scalar Mesh.node[7].queue[0] txBytes:count 0
attr interpolationmode none
attr title "transmitting packet byte length, count"
attr unit bytes
scalar Mesh.node[7].queue[0] txBytes:sum 0
attr interpolationmode none
attr title "transmitting packet byte length, sum"
attr unit bytes
statistic Mesh.node[7].queue[0] txBytes:histogram
field count 0
field mean nan
field stddev nan
field min nan
field max nan
field sum 0
field sqrsum 0
attr interpolationmode none
attr title "transmitting packet byte length, histogram"
attr unit bytes
bin	-inf	0
bin	0	0
bin	1	0
scalar Mesh.node[7].queue[0] busy:timeavg 0
attr interpolationmode sample-hold
attr title "server busy state, timeavg"
scalar Mesh.node[7].queue[0] qlen:timeavg 0
attr interpolationmode sample-hold
attr title "queue length, timeavg"
scalar Mesh.node[7].queue[0] qlen:max 0
attr interpolationmode sample-hold
attr title "queue length, max"
scalar Mesh.node[7].queue[0] drop:count 0
attr interpolationmode none
attr title "dropped packet byte length, count"
attr unit bytes
scalar Mesh.node[7].queue[0] drop:sum 0
attr interpolationmode none
attr title "dropped packet byte length, sum"
attr unit bytes
scalar Mesh.node[7].queue[1] rxBytes:count 0
attr interpolationmode none
attr title "received packet byte length, count"
attr unit bytes
scalar Mesh.node[7].queue[1] rxBytes:sum 0
attr interpolationmode none
attr title "received packet byte length, sum"
attr unit bytes
statistic Mesh.node[7].queue[1] rxBytes:histogram
field count 0
field mean nan
field stddev nan
field min nan
field max nan
field sum 0
field sqrsum 0
attr interpolationmode none
attr title "received packet byte length, histogram"
attr unit bytes
bin	-inf	0
bin	0	0
bin	1	0
scalar Mesh.node[7].queue[1] txBytes:count 283
attr interpolationmode none
attr title "transmitting packet byte length, count"
attr unit bytes
scalar Mesh.node[7].queue[1] txBytes:sum 1159168
attr interpolationmode none
attr title "transmitting packet byte length, sum"
attr unit bytes
statistic Mesh.node[7].queue[1] txBytes:histogram
field count 283
field mean 4096
field stddev 0
field min 4096
field max 4096
field sum 1159168
field sqrsum 4747952128
attr interpolationmode none
attr title "transmitting packet byte length, histogram"
attr unit bytes
bin	-inf	0
bin	4095	0
bin	4096	283
bin	4097	0
scalar Mesh.node[7].queue[1] busy:timeavg 8.7504396092978e-005
attr interpolationmode sample-hold
attr title "server busy state, timeavg"
scalar Mesh.node[7].queue[1] qlen:timeavg 0
attr interpolationmode sample-hold
attr title "queue length, timeavg"
scalar Mesh.node[7].queue[1] qlen:max 0
attr interpolationmode sample-hold
attr title "queue length, max"
scalar Mesh.node[7].queue[1] drop:count 0
attr interpolationmode none
attr title "dropped packet byte length, count"
attr unit bytes
scalar Mesh.node[7].queue[1] drop:sum 0
attr interpolationmode none
attr title "dropped packet byte length, sum"
attr unit bytes
scalar Mesh.node[7].queue[2] rxBytes:count 0
attr interpolationmode none
attr title "received packet byte length, count"
attr unit bytes
scalar Mesh.node[7].queue[2] rxBytes:sum 0
attr interpolationmode none
attr title "received packet byte length, sum"
attr unit bytes
statistic Mesh.node[7].queue[2] rxBytes:histogram
field count 0
field mean nan
field stddev nan
field min nan
field max nan
field sum 0
field sqrsum 0
attr interpolationmode none
attr title "received packet byte length, histogram"
attr unit bytes
bin	-inf	0
bin	0	0
bin	1	0
scalar Mesh.node[7].queue[2] txBytes:count 64
attr interpolationmode none
attr title "transmitting packet byte length, count"
attr unit bytes
scalar Mesh.node[7].queue[2] txBytes:sum 262144
attr interpolationmode none
attr title "transmitting packet byte length, sum"
attr unit bytes
statistic Mesh.node[7].queue[2] txBytes:histogram
field count 64
field mean 4096
field stddev 0
field min 4096
field max 4096
field sum 262144
field sqrsum 1073741824
attr interpolationmode none
attr title "transmitting packet byte length, histogram"
attr unit bytes
bin	-inf	0
bin	4095	0
bin	4096	64
bin	4097	0
scalar Mesh.node[7].queue[2] busy:timeavg 1.9788980035161e-005
attr interpolationmode sample-hold
attr title "server busy state, timeavg"
scalar Mesh.node[7].queue[2] qlen:timeavg 0
attr interpolationmode sample-hold
attr title "queue length, timeavg"
scalar Mesh.node[7].queue[2] qlen:max 0
attr interpolationmode sample-hold
attr title "queue length, max"
scalar Mesh.node[7].queue[2] drop:count 0
attr interpolationmode none
attr title "dropped packet byte length, count"
attr unit bytes
scalar Mesh.node[7].queue[2] drop:sum 0
attr interpolationmode none
attr title "dropped packet byte length, sum"
attr unit bytes
scalar Mesh.node[7].queue[3] rxBytes:count 0
attr interpolationmode none
attr title "received packet byte length, count"
attr unit bytes
scalar Mesh.node[7].queue[3] rxBytes:sum 0
attr interpolationmode none
attr title "received packet byte length, sum"
attr unit bytes
statistic Mesh.node[7].queue[3] rxBytes:histogram
field count 0
field mean nan
field stddev nan
field min nan
field max nan
field sum 0
field sqrsum 0
attr interpolationmode none
attr title "received packet byte length, histogram"
attr unit bytes
bin	-inf	0
bin	0	0
bin	1	0
scalar Mesh.node[7].queue[3] txBytes:count 0
attr interpolationmode none
attr title "transmitting packet byte length, count"
attr unit bytes
scalar Mesh.node[7].queue[3] txBytes:sum 0
attr interpolationmode none
attr title "transmitting packet byte length, sum"
attr unit bytes
statistic Mesh.node[7].queue[3] txBytes:histogram
field count 0
field mean nan
field stddev nan
field min nan
field max nan
field sum 0
field sqrsum 0
attr interpolationmode none
attr title "transmitting packet byte length, histogram"
attr unit bytes
bin	-inf	0
bin	0	0
bin	1	0
scalar Mesh.node[7].queue[3] busy:timeavg 0
attr interpolationmode sample-hold
attr title "server busy state, timeavg"
scalar Mesh.node[7].queue[3] qlen:timeavg 0
attr interpolationmode sample-hold
attr title "queue length, timeavg"
scalar Mesh.node[7].queue[3] qlen:max 0
attr interpolationmode sample-hold
attr title "queue length, max"
scalar Mesh.node[7].queue[3] drop:count 0
attr interpolationmode none
attr title "dropped packet byte length, count"
attr unit bytes
scalar Mesh.node[7].queue[3] drop:sum 0
attr interpolationmode none
attr title "dropped packet byte length, sum"
attr unit bytes
scalar Mesh.node[8].app hopCount:mean nan
attr interpolationmode none
attr title "hop count of arrived packets, mean"
scalar Mesh.node[8].app hopCount:max nan
attr interpolationmode none
attr title "hop count of arrived packets, max"
scalar Mesh.node[8].app endToEndDelay:mean nan
attr interpolationmode none
attr title "end-to-end delay of arrived packets, mean"
attr unit s
scalar Mesh.node[8].app endToEndDelay:max nan
attr interpolationmode none
attr title "end-to-end delay of arrived packets, max"
attr unit s
statistic Mesh.node[8].routing outputIf:histogram
field count 433
field mean 1.3210161662818
field stddev 0.46740703395028
field min 1
field max 2
field sum 572
field sqrsum 850
attr interpolationmode none
attr title "output interface for each routed packet, histogram"
bin	-inf	0
bin	0	0
bin	1	294
bin	2	139
bin	3	0
scalar Mesh.node[8].routing drop:count 0
attr interpolationmode none
attr title "dropped packet byte length, count"
attr unit bytes
scalar Mesh.node[8].routing drop:sum 0
attr interpolationmode none
attr title "dropped packet byte length, sum"
attr unit bytes
scalar Mesh.node[8].queue[0] rxBytes:count 250
attr interpolationmode none
attr title "received packet byte length, count"
attr unit bytes
scalar Mesh.node[8].queue[0] rxBytes:sum 1024000
attr interpolationmode none
attr title "received packet byte length, sum"
attr unit bytes
statistic Mesh.node[8].queue[0] rxBytes:histogram
field count 250
field mean 4096
field stddev 0
field min 4096
field max 4096
field sum 1024000
field sqrsum 4194304000
attr interpolationmode none
attr title "received packet byte length, histogram"
attr unit bytes
bin	-inf	0
bin	4095	0
bin	4096	250
bin	4097	0
scalar Mesh.node[8].queue[0] txBytes:count 0
attr interpolationmode none
attr title "transmitting packet byte length, count"
attr unit bytes
scalar Mesh.node[8].queue[0] txBytes:sum 0
attr interpolationmode none
attr title "transmitting packet byte length, sum"
attr unit bytes
statistic Mesh.node[8].queue[0] txBytes:histogram
field count 0
field mean nan
field stddev nan
field min nan
field max nan
field sum 0
field sqrsum 0
attr interpolationmode none
attr title "transmitting packet byte length, histogram"
attr unit bytes
bin	-inf	0
bin	0	0
bin	1	0
scalar Mesh.node[8].queue[0] busy:timeavg 0
attr interpolationmode sample-hold
attr title "server busy state, timeavg"
scalar Mesh.node[8].queue[0] qlen:timeavg 0
attr interpolationmode sample-hold
attr title "queue length, timeavg"
scalar Mesh.node[8].queue[0] qlen:max 0
attr interpolationmode sample-hold
attr title "queue length, max"
scalar Mesh.node[8].queue[0] drop:count 0
attr interpolationmode none
attr title "dropped packet byte length, count"
attr unit bytes
scalar Mesh.node[8].queue[0] drop:sum 0
attr interpolationmode none
attr title "dropped packet byte length, sum"
attr unit bytes
scalar Mesh.node[8].queue[1] rxBytes:count 0
attr interpolationmode none
attr title "received packet byte length, count"
attr unit bytes
scalar Mesh.node[8].queue[1] rxBytes:sum 0
attr interpolationmode none
attr title "received packet byte length, sum"
attr unit bytes
statistic Mesh.node[8].queue[1] rxBytes:histogram
field count 0
field mean nan
field stddev nan
field min nan
field max nan
field sum 0
field sqrsum 0
attr interpolationmode none
attr title "received packet byte length, histogram"
attr unit bytes
bin	-inf	0
bin	0	0
bin	1	0
scalar Mesh.node[8].queue[1] txBytes:count 294
attr interpolationmode none
attr title "transmitting packet byte length, count"
attr unit bytes
scalar Mesh.node[8].queue[1] txBytes:sum 1204224
attr interpolationmode none
attr title "transmitting packet byte length, sum"
attr unit bytes
statistic Mesh.node[8].queue[1] txBytes:histogram
field count 294
field mean 4096
field stddev 0
field min 4096
field max 4096
field sum 1204224
field sqrsum 4932501504
attr interpolationmode none
attr title "transmitting packet byte length, histogram"
attr unit bytes
bin	-inf	0
bin	4095	0
bin	4096	294
bin	4097	0
scalar Mesh.node[8].queue[1] busy:timeavg 9.0905627036521e-005
attr interpolationmode sample-hold
attr title "server busy state, timeavg"
scalar Mesh.node[8].queue[1] qlen:timeavg 0
attr interpolationmode sample-hold
attr title "queue length, timeavg"
scalar Mesh.node[8].queue[1] qlen:max 0
attr interpolationmode sample-hold
attr title "queue length, max"
scalar Mesh.node[8].queue[1] drop:count 0
attr interpolationmode none
attr title "dropped packet byte length, count"
attr unit bytes
scalar Mesh.node[8].queue[1] drop:sum 0
attr interpolationmode none
attr title "dropped packet byte length, sum"
attr unit bytes
scalar Mesh.node[8].queue[2] rxBytes:count 0
attr interpolationmode none
attr title "received packet byte length, count"
attr unit bytes
scalar Mesh.node[8].queue[2] rxBytes:sum 0
attr interpolationmode none
attr title "received packet byte length, sum"
attr unit bytes
statistic Mesh.node[8].queue[2] rxBytes:histogram
field count 0
field mean nan
field stddev nan
field min nan
field max nan
field sum 0
field sqrsum 0
attr interpolationmode none
attr title "received packet byte length, histogram"
attr unit bytes
bin	-inf	0
bin	0	0
bin	1	0
scalar Mesh.node[8].queue[2] txBytes:count 139
attr interpolationmode none
attr title "transmitting packet byte length, count"
attr unit bytes
scalar Mesh.node[8].queue[2] txBytes:sum 569344
attr interpolationmode none
attr title "transmitting packet byte length, sum"
attr unit bytes
statistic Mesh.node[8].queue[2] txBytes:histogram
field count 139
field mean 4096
field stddev 0
field min 4096
field max 4096
field sum 569344
field sqrsum 2332033024
attr interpolationmode none
attr title "transmitting packet byte length, histogram"
attr unit bytes
bin	-inf	0
bin	4095	0
bin	4096	139
bin	4097	0
scalar Mesh.node[8].queue[2] busy:timeavg 4.2979191013865e-005
attr interpolationmode sample-hold
attr title "server busy state, timeavg"
scalar Mesh.node[8].queue[2] qlen:timeavg 0
attr interpolationmode sample-hold
attr title "queue length, timeavg"
scalar Mesh.node[8].queue[2] qlen:max 0
attr interpolationmode sample-hold
attr title "queue length, max"
scalar Mesh.node[8].queue[2] drop:count 0
attr interpolationmode none
attr title "dropped packet byte length, count"
attr unit bytes
scalar Mesh.node[8].queue[2] drop:sum 0
attr interpolationmode none
attr title "dropped packet byte length, sum"
attr unit bytes
scalar Mesh.node[8].queue[3] rxBytes:count 64
attr interpolationmode none
attr title "received packet byte length, count"
attr unit bytes
scalar Mesh.node[8].queue[3] rxBytes:sum 262144
attr interpolationmode none
attr title "received packet byte length, sum"
attr unit bytes
statistic Mesh.node[8].queue[3] rxBytes:histogram
field count 64
field mean 4096
field stddev 0
field min 4096
field max 4096
field sum 262144
field sqrsum 1073741824
attr interpolationmode none
attr title "received packet byte length, histogram"
attr unit bytes
bin	-inf	0
bin	4095	0
bin	4096	64
bin	4097	0
scalar Mesh.node[8].queue[3] txBytes:count 0
attr interpolationmode none
attr title "transmitting packet byte length, count"
attr unit bytes
scalar Mesh.node[8].queue[3] txBytes:sum 0
attr interpolationmode none
attr title "transmitting packet byte length, sum"
attr unit bytes
statistic Mesh.node[8].queue[3] txBytes:histogram
field count 0
field mean nan
field stddev nan
field min nan
field max nan
field sum 0
field sqrsum 0
attr interpolationmode none
attr title "transmitting packet byte length, histogram"
attr unit bytes
bin	-inf	0
bin	0	0
bin	1	0
scalar Mesh.node[8].queue[3] busy:timeavg 0
attr interpolationmode sample-hold
attr title "server busy state, timeavg"
scalar Mesh.node[8].queue[3] qlen:timeavg 0
attr interpolationmode sample-hold
attr title "queue length, timeavg"
scalar Mesh.node[8].queue[3] qlen:max 0
attr interpolationmode sample-hold
attr title "queue length, max"
scalar Mesh.node[8].queue[3] drop:count 0
attr interpolationmode none
attr title "dropped packet byte length, count"
attr unit bytes
scalar Mesh.node[8].queue[3] drop:sum 0
attr interpolationmode none
attr title "dropped packet byte length, sum"
attr unit bytes
scalar Mesh.node[9].app hopCount:mean nan
attr interpolationmode none
attr title "hop count of arrived packets, mean"
scalar Mesh.node[9].app hopCount:max nan
attr interpolationmode none
attr title "hop count of arrived packets, max"
scalar Mesh.node[9].app endToEndDelay:mean nan
attr interpolationmode none
attr title "end-to-end delay of arrived packets, mean"
attr unit s
scalar Mesh.node[9].app endToEndDelay:max nan
attr interpolationmode none
attr title "end-to-end delay of arrived packets, max"
attr unit s
statistic Mesh.node[9].routing outputIf:histogram
field count 496
field mean 1.4314516129032
field stddev 0.49577885840548
field min 1
field max 2
field sum 710
field sqrsum 1138
attr interpolationmode none
attr title "output interface for each routed packet, histogram"
bin	-inf	0
bin	0	0
bin	1	282
bin	2	214
bin	3	0
scalar Mesh.node[9].routing drop:count 0
attr interpolationmode none
attr title "dropped packet byte length, count"
attr unit bytes
scalar Mesh.node[9].routing drop:sum 0
attr interpolationmode none
attr title "dropped packet byte length, sum"
attr unit bytes
scalar Mesh.node[9].queue[0] rxBytes:count 243
attr interpolationmode none
attr title "received packet byte length, count"
attr unit bytes
scalar Mesh.node[9].queue[0] rxBytes:sum 995328
attr interpolationmode none
attr title "received packet byte length, sum"
attr unit bytes
statistic Mesh.node[9].queue[0] rxBytes:histogram
field count 243
field mean 4096
field stddev 0
field min 4096
field max 4096
field sum 995328
field sqrsum 4076863488
attr interpolationmode none
attr title "received packet byte length, histogram"
attr unit bytes
bin	-inf	0
bin	4095	0
bin	4096	243
bin	4097	0
scalar Mesh.node[9].queue[0] txBytes:count 0
attr interpolationmode none
attr title "transmitting packet byte length, count"
attr unit bytes
scalar Mesh.node[9].queue[0] txBytes:sum 0
attr interpolationmode none
attr title "transmitting packet byte length, sum"
attr unit bytes
statistic Mesh.node[9].queue[0] txBytes:histogram
field count 0
field mean nan
field stddev nan
field min nan
field max nan
field sum 0
field sqrsum 0
attr interpolationmode none
attr title "transmitting packet byte length, histogram"
attr unit bytes
bin	-inf	0
bin	0	0
bin	1	0
scalar Mesh.node[9].queue[0] busy:timeavg 0
attr interpolationmode sample-hold
attr title "server busy state, timeavg"
scalar Mesh.node[9].queue[0] qlen:timeavg 0
attr interpolationmode sample-hold
attr title "queue length, timeavg"
scalar Mesh.node[9].queue[0] qlen:max 0
attr interpolationmode sample-hold
attr title "queue length, max"
scalar Mesh.node[9].queue[0] drop:count 0
attr interpolationmode none
attr title "dropped packet byte length, count"
attr unit bytes
scalar Mesh.node[9].queue[0] drop:sum 0
attr interpolationmode none
attr title "dropped packet byte length, sum"
attr unit bytes
scalar Mesh.node[9].queue[1] rxBytes:count 0
attr interpolationmode none
attr title "received packet byte length, count"
attr unit bytes
scalar Mesh.node[9].queue[1] rxBytes:sum 0
attr interpolationmode none
attr title "received packet byte length, sum"
attr unit bytes
statistic Mesh.node[9].queue[1] rxBytes:histogram
field count 0
field mean nan
field stddev nan
field min nan
field max nan
field sum 0
field sqrsum 0
attr interpolationmode none
attr title "received packet byte length, histogram"
attr unit bytes
bin	-inf	0
bin	0	0
bin	1	0
scalar Mesh.node[9].queue[1] txBytes:count 282
attr interpolationmode none
attr title "transmitting packet byte length, count"
attr unit bytes
scalar Mesh.node[9].queue[1] txBytes:sum 1155072
attr interpolationmode none
attr title "transmitting packet byte length, sum"
attr unit bytes
statistic Mesh.node[9].queue[1] txBytes:histogram
field count 282
field mean 4096
field stddev 0
field min 4096
field max 4096
field sum 1155072
field sqrsum 4731174912
attr interpolationmode none
attr title "transmitting packet byte length, histogram"
attr unit bytes
bin	-inf	0
bin	4095	0
bin	4096	282
bin	4097	0
scalar Mesh.node[9].queue[1] busy:timeavg 8.7195193279928e-005
attr interpolationmode sample-hold
attr title "server busy state, timeavg"
scalar Mesh.node[9].queue[1] qlen:timeavg 0
attr interpolationmode sample-hold
attr title "queue length, timeavg"
scalar Mesh.node[9].queue[1] qlen:max 0
attr interpolationmode sample-hold
attr title "queue length, max"
scalar Mesh.node[9].queue[1] drop:count 0
attr interpolationmode none
attr title "dropped packet byte length, count"
attr unit bytes
scalar Mesh.node[9].queue[1] drop:sum 0
attr interpolationmode none
attr title "dropped packet byte length, sum"
attr unit bytes
scalar Mesh.node[9].queue[2] rxBytes:count 0
attr interpolationmode none
attr title "received packet byte length, count"
attr unit bytes
scalar Mesh.node[9].queue[2] rxBytes:sum 0
attr interpolationmode none
attr title "received packet byte length, sum"
attr unit bytes
statistic Mesh.node[9].queue[2] rxBytes:histogram
field count 0
field mean nan
field stddev nan
field min nan
field max nan
field sum 0
field sqrsum 0
attr interpolationmode none
attr title "received packet byte length, histogram"
attr unit bytes
bin	-inf	0
bin	0	0
bin	1	0
scalar Mesh.node[9].queue[2] txBytes:count 214
attr interpolationmode none
attr title "transmitting packet byte length, count"
attr unit bytes
scalar Mesh.node[9].queue[2] txBytes:sum 876544
attr interpolationmode none
attr title "transmitting packet byte length, sum"
attr unit bytes
statistic Mesh.node[9].queue[2] txBytes:histogram
field count 214
field mean 4096
field stddev 0
field min 4096
field max 4096
field sum 876544
field sqrsum 3590324224
attr interpolationmode none
attr title "transmitting packet byte length, histogram"
attr unit bytes
bin	-inf	0
bin	4095	0
bin	4096	214
bin	4097	0
scalar Mesh.node[9].queue[2] busy:timeavg 6.6169401992569e-005
attr interpolationmode sample-hold
attr title "server busy state, timeavg"
scalar Mesh.node[9].queue[2] qlen:timeavg 0
attr interpolationmode sample-hold
attr title "queue length, timeavg"
scalar Mesh.node[9].queue[2] qlen:max 0
attr interpolationmode sample-hold
attr title "queue length, max"
scalar Mesh.node[9].queue[2] drop:count 0
attr interpolationmode none
attr title "dropped packet byte length, count"
attr unit bytes
scalar Mesh.node[9].queue[2] drop:sum 0
attr interpolationmode none
attr title "dropped packet byte length, sum"
attr unit bytes
scalar Mesh.node[9].queue[3] rxBytes:count 139
attr interpolationmode none
attr title "received packet byte length, count"
attr unit bytes
[...]
scalar Mesh.node[60].queue[1] busy:timeavg 2.9374267239692e-005
attr interpolationmode sample-hold
attr title "server busy state, timeavg"
scalar Mesh.node[60].queue[1] qlen:timeavg 0
attr interpolationmode sample-hold
attr title "queue length, timeavg"
scalar Mesh.node[60].queue[1] qlen:max 0
attr interpolationmode sample-hold
attr title "queue length, max"
scalar Mesh.node[60].queue[1] drop:count 0
attr interpolationmode none
attr title "dropped packet byte length, count"
attr unit bytes
scalar Mesh.node[60].queue[1] drop:sum 0
attr interpolationmode none
attr title "dropped packet byte length, sum"
attr unit bytes
scalar Mesh.node[60].queue[2] rxBytes:count 0
attr interpolationmode none
attr title "received packet byte length, count"
attr unit bytes
scalar Mesh.node[60].queue[2] rxBytes:sum 0
attr interpolationmode none
attr title "received packet byte length, sum"
attr unit bytes
statistic Mesh.node[60].queue[2] rxBytes:histogram
field count 0
field mean nan
field stddev nan
field min nan
field max nan
field sum 0
field sqrsum 0
attr interpolationmode none
attr title "received packet byte length, histogram"
attr unit bytes
bin	-inf	0
bin	0	0
bin	1	0
scalar Mesh.node[60].queue[2] txBytes:count 0
attr interpolationmode none
attr title "transmitting packet byte length, count"
attr unit bytes
scalar Mesh.node[60].queue[2] txBytes:sum 0
attr interpolationmode none
attr title "transmitting packet byte length, sum"
attr unit bytes
statistic Mesh.node[60].queue[2] txBytes:histogram
field count 0
field mean nan
field stddev nan
field min nan
field max nan
field sum 0
field sqrsum 0
attr interpolationmode none
attr title "transmitting packet byte length, histogram"
attr unit bytes
bin	-inf	0
bin	0	0
bin	1	0
scalar Mesh.node[60].queue[2] busy:timeavg 0
attr interpolationmode sample-hold
attr title "server busy state, timeavg"
scalar Mesh.node[60].queue[2] qlen:timeavg 0
attr interpolationmode sample-hold
attr title "queue length, timeavg"
scalar Mesh.node[60].queue[2] qlen:max 0
attr interpolationmode sample-hold
attr title "queue length, max"
scalar Mesh.node[60].queue[2] drop:count 0
attr interpolationmode none
attr title "dropped packet byte length, count"
attr unit bytes
scalar Mesh.node[60].queue[2] drop:sum 0
attr interpolationmode none
attr title "dropped packet byte length, sum"
attr unit bytes
scalar Mesh.node[60].queue[3] rxBytes:count 0
attr interpolationmode none
attr title "received packet byte length, count"
attr unit bytes
scalar Mesh.node[60].queue[3] rxBytes:sum 0
attr interpolationmode none
attr title "received packet byte length, sum"
attr unit bytes
statistic Mesh.node[60].queue[3] rxBytes:histogram
field count 0
field mean nan
field stddev nan
field min nan
field max nan
field sum 0
field sqrsum 0
attr interpolationmode none
attr title "received packet byte length, histogram"
attr unit bytes
bin	-inf	0
bin	0	0
bin	1	0
scalar Mesh.node[60].queue[3] txBytes:count 0
attr interpolationmode none
attr title "transmitting packet byte length, count"
attr unit bytes
scalar Mesh.node[60].queue[3] txBytes:sum 0
attr interpolationmode none
attr title "transmitting packet byte length, sum"
attr unit bytes
statistic Mesh.node[60].queue[3] txBytes:histogram
field count 0
field mean nan
field stddev nan
field min nan
field max nan
field sum 0
field sqrsum 0
attr interpolationmode none
attr title "transmitting packet byte length, histogram"
attr unit bytes
bin	-inf	0
bin	0	0
bin	1	0
scalar Mesh.node[60].queue[3] busy:timeavg 0
attr interpolationmode sample-hold
attr title "server busy state, timeavg"
scalar Mesh.node[60].queue[3] qlen:timeavg 0
attr interpolationmode sample-hold
attr title "queue length, timeavg"
scalar Mesh.node[60].queue[3] qlen:max 0
attr interpolationmode sample-hold
attr title "queue length, max"
scalar Mesh.node[60].queue[3] drop:count 0
attr interpolationmode none
attr title "dropped packet byte length, count"
attr unit bytes
scalar Mesh.node[60].queue[3] drop:sum 0
attr interpolationmode none
attr title "dropped packet byte length, sum"
attr unit bytes
scalar Mesh.node[61].app hopCount:mean nan
attr interpolationmode none
attr title "hop count of arrived packets, mean"
scalar Mesh.node[61].app hopCount:max nan
attr interpolationmode none
attr title "hop count of arrived packets, max"
scalar Mesh.node[61].app endToEndDelay:mean nan
attr interpolationmode none
attr title "end-to-end delay of arrived packets, mean"
attr unit s
scalar Mesh.node[61].app endToEndDelay:max nan
attr interpolationmode none
attr title "end-to-end delay of arrived packets, max"
attr unit s
statistic Mesh.node[61].routing outputIf:histogram
field count 108
field mean 1
field stddev 0
field min 1
field max 1
field sum 108
field sqrsum 108
attr interpolationmode none
attr title "output interface for each routed packet, histogram"
bin	-inf	0
bin	0	0
bin	1	108
bin	2	0
scalar Mesh.node[61].routing drop:count 0
attr interpolationmode none
attr title "dropped packet byte length, count"
attr unit bytes
scalar Mesh.node[61].routing drop:sum 0
attr interpolationmode none
attr title "dropped packet byte length, sum"
attr unit bytes
scalar Mesh.node[61].queue[0] rxBytes:count 0
attr interpolationmode none
attr title "received packet byte length, count"
attr unit bytes
scalar Mesh.node[61].queue[0] rxBytes:sum 0
attr interpolationmode none
attr title "received packet byte length, sum"
attr unit bytes
statistic Mesh.node[61].queue[0] rxBytes:histogram
field count 0
field mean nan
field stddev nan
field min nan
field max nan
field sum 0
field sqrsum 0
attr interpolationmode none
attr title "received packet byte length, histogram"
attr unit bytes
bin	-inf	0
bin	0	0
bin	1	0
scalar Mesh.node[61].queue[0] txBytes:count 0
attr interpolationmode none
attr title "transmitting packet byte length, count"
attr unit bytes
scalar Mesh.node[61].queue[0] txBytes:sum 0
attr interpolationmode none
attr title "transmitting packet byte length, sum"
attr unit bytes
statistic Mesh.node[61].queue[0] txBytes:histogram
field count 0
field mean nan
field stddev nan
field min nan
field max nan
field sum 0
field sqrsum 0
attr interpolationmode none
attr title "transmitting packet byte length, histogram"
attr unit bytes
bin	-inf	0
bin	0	0
bin	1	0
scalar Mesh.node[61].queue[0] busy:timeavg 0
attr interpolationmode sample-hold
attr title "server busy state, timeavg"
scalar Mesh.node[61].queue[0] qlen:timeavg 0
attr interpolationmode sample-hold
attr title "queue length, timeavg"
scalar Mesh.node[61].queue[0] qlen:max 0
attr interpolationmode sample-hold
attr title "queue length, max"
scalar Mesh.node[61].queue[0] drop:count 0
attr interpolationmode none
attr title "dropped packet byte length, count"
attr unit bytes
scalar Mesh.node[61].queue[0] drop:sum 0
attr interpolationmode none
attr title "dropped packet byte length, sum"
attr unit bytes
scalar Mesh.node[61].queue[1] rxBytes:count 0
attr interpolationmode none
attr title "received packet byte length, count"
attr unit bytes
scalar Mesh.node[61].queue[1] rxBytes:sum 0
attr interpolationmode none
attr title "received packet byte length, sum"
attr unit bytes
statistic Mesh.node[61].queue[1] rxBytes:histogram
field count 0
field mean nan
field stddev nan
field min nan
field max nan
field sum 0
field sqrsum 0
attr interpolationmode none
attr title "received packet byte length, histogram"
attr unit bytes
bin	-inf	0
bin	0	0
bin	1	0
scalar Mesh.node[61].queue[1] txBytes:count 108
attr interpolationmode none
attr title "transmitting packet byte length, count"
attr unit bytes
scalar Mesh.node[61].queue[1] txBytes:sum 442368
attr interpolationmode none
attr title "transmitting packet byte length, sum"
attr unit bytes
statistic Mesh.node[61].queue[1] txBytes:histogram
field count 108
field mean 4096
field stddev 0
field min 4096
field max 4096
field sum 442368
field sqrsum 1811939328
attr interpolationmode none
attr title "transmitting packet byte length, histogram"
attr unit bytes
bin	-inf	0
bin	4095	0
bin	4096	108
bin	4097	0
scalar Mesh.node[61].queue[1] busy:timeavg 3.3393903809334e-005
attr interpolationmode sample-hold
attr title "server busy state, timeavg"
scalar Mesh.node[61].queue[1] qlen:timeavg 0
attr interpolationmode sample-hold
attr title "queue length, timeavg"
scalar Mesh.node[61].queue[1] qlen:max 0
attr interpolationmode sample-hold
attr title "queue length, max"
scalar Mesh.node[61].queue[1] drop:count 0
attr interpolationmode none
attr title "dropped packet byte length, count"
attr unit bytes
scalar Mesh.node[61].queue[1] drop:sum 0
attr interpolationmode none
attr title "dropped packet byte length, sum"
attr unit bytes
scalar Mesh.node[61].queue[2] rxBytes:count 0
attr interpolationmode none
attr title "received packet byte length, count"
attr unit bytes
scalar Mesh.node[61].queue[2] rxBytes:sum 0
attr interpolationmode none
attr title "received packet byte length, sum"
attr unit bytes
statistic Mesh.node[61].queue[2] rxBytes:histogram
field count 0
field mean nan
field stddev nan
field min nan
field max nan
field sum 0
field sqrsum 0
attr interpolationmode none
attr title "received packet byte length, histogram"
attr unit bytes
bin	-inf	0
bin	0	0
bin	1	0
scalar Mesh.node[61].queue[2] txBytes:count 0
attr interpolationmode none
attr title "transmitting packet byte length, count"
attr unit bytes
scalar Mesh.node[61].queue[2] txBytes:sum 0
attr interpolationmode none
attr title "transmitting packet byte length, sum"
attr unit bytes
statistic Mesh.node[61].queue[2] txBytes:histogram
field count 0
field mean nan
field stddev nan
field min nan
field max nan
field sum 0
field sqrsum 0
attr interpolationmode none
attr title "transmitting packet byte length, histogram"
attr unit bytes
bin	-inf	0
bin	0	0
bin	1	0
scalar Mesh.node[61].queue[2] busy:timeavg 0
attr interpolationmode sample-hold
attr title "server busy state, timeavg"
scalar Mesh.node[61].queue[2] qlen:timeavg 0
attr interpolationmode sample-hold
attr title "queue length, timeavg"
scalar Mesh.node[61].queue[2] qlen:max 0
attr interpolationmode sample-hold
attr title "queue length, max"
scalar Mesh.node[61].queue[2] drop:count 0
attr interpolationmode none
attr title "dropped packet byte length, count"
attr unit bytes
scalar Mesh.node[61].queue[2] drop:sum 0
attr interpolationmode none
attr title "dropped packet byte length, sum"
attr unit bytes
scalar Mesh.node[61].queue[3] rxBytes:count 0
attr interpolationmode none
attr title "received packet byte length, count"
attr unit bytes
scalar Mesh.node[61].queue[3] rxBytes:sum 0
attr interpolationmode none
attr title "received packet byte length, sum"
attr unit bytes
statistic Mesh.node[61].queue[3] rxBytes:histogram
field count 0
field mean nan
field stddev nan
field min nan
field max nan
field sum 0
field sqrsum 0
attr interpolationmode none
attr title "received packet byte length, histogram"
attr unit bytes
bin	-inf	0
bin	0	0
bin	1	0
scalar Mesh.node[61].queue[3] txBytes:count 0
attr interpolationmode none
attr title "transmitting packet byte length, count"
attr unit bytes
scalar Mesh.node[61].queue[3] txBytes:sum 0
attr interpolationmode none
attr title "transmitting packet byte length, sum"
attr unit bytes
statistic Mesh.node[61].queue[3] txBytes:histogram
field count 0
field mean nan
field stddev nan
field min nan
field max nan
field sum 0
field sqrsum 0
attr interpolationmode none
attr title "transmitting packet byte length, histogram"
attr unit bytes
bin	-inf	0
bin	0	0
bin	1	0
scalar Mesh.node[61].queue[3] busy:timeavg 0
attr interpolationmode sample-hold
attr title "server busy state, timeavg"
scalar Mesh.node[61].queue[3] qlen:timeavg 0
attr interpolationmode sample-hold
attr title "queue length, timeavg"
scalar Mesh.node[61].queue[3] qlen:max 0
attr interpolationmode sample-hold
attr title "queue length, max"
scalar Mesh.node[61].queue[3] drop:count 0
attr interpolationmode none
attr title "dropped packet byte length, count"
attr unit bytes
scalar Mesh.node[61].queue[3] drop:sum 0
attr interpolationmode none
attr title "dropped packet byte length, sum"
attr unit bytes
scalar Mesh.node[62].app hopCount:mean nan
attr interpolationmode none
attr title "hop count of arrived packets, mean"
scalar Mesh.node[62].app hopCount:max nan
attr interpolationmode none
attr title "hop count of arrived packets, max"
scalar Mesh.node[62].app endToEndDelay:mean nan
attr interpolationmode none
attr title "end-to-end delay of arrived packets, mean"
attr unit s
scalar Mesh.node[62].app endToEndDelay:max nan
attr interpolationmode none
attr title "end-to-end delay of arrived packets, max"
attr unit s
statistic Mesh.node[62].routing outputIf:histogram
field count 116
field mean 1
field stddev 0
field min 1
field max 1
field sum 116
field sqrsum 116
attr interpolationmode none
attr title "output interface for each routed packet, histogram"
bin	-inf	0
bin	0	0
bin	1	116
bin	2	0
scalar Mesh.node[62].routing drop:count 0
attr interpolationmode none
attr title "dropped packet byte length, count"
attr unit bytes
scalar Mesh.node[62].routing drop:sum 0
attr interpolationmode none
attr title "dropped packet byte length, sum"
attr unit bytes
scalar Mesh.node[62].queue[0] rxBytes:count 0
attr interpolationmode none
attr title "received packet byte length, count"
attr unit bytes
scalar Mesh.node[62].queue[0] rxBytes:sum 0
attr interpolationmode none
attr title "received packet byte length, sum"
attr unit bytes
statistic Mesh.node[62].queue[0] rxBytes:histogram
field count 0
field mean nan
field stddev nan
field min nan
field max nan
field sum 0
field sqrsum 0
attr interpolationmode none
attr title "received packet byte length, histogram"
attr unit bytes
bin	-inf	0
bin	0	0
bin	1	0
scalar Mesh.node[62].queue[0] txBytes:count 0
attr interpolationmode none
attr title "transmitting packet byte length, count"
attr unit bytes
scalar Mesh.node[62].queue[0] txBytes:sum 0
attr interpolationmode none
attr title "transmitting packet byte length, sum"
attr unit bytes
statistic Mesh.node[62].queue[0] txBytes:histogram
field count 0
field mean nan
field stddev nan
field min nan
field max nan
field sum 0
field sqrsum 0
attr interpolationmode none
attr title "transmitting packet byte length, histogram"
attr unit bytes
bin	-inf	0
bin	0	0
bin	1	0
scalar Mesh.node[62].queue[0] busy:timeavg 0
attr interpolationmode sample-hold
attr title "server busy state, timeavg"
scalar Mesh.node[62].queue[0] qlen:timeavg 0
attr interpolationmode sample-hold
attr title "queue length, timeavg"
scalar Mesh.node[62].queue[0] qlen:max 0
attr interpolationmode sample-hold
attr title "queue length, max"
scalar Mesh.node[62].queue[0] drop:count 0
attr interpolationmode none
attr title "dropped packet byte length, count"
attr unit bytes
scalar Mesh.node[62].queue[0] drop:sum 0
attr interpolationmode none
attr title "dropped packet byte length, sum"
attr unit bytes
scalar Mesh.node[62].queue[1] rxBytes:count 0
attr interpolationmode none
attr title "received packet byte length, count"
attr unit bytes
scalar Mesh.node[62].queue[1] rxBytes:sum 0
attr interpolationmode none
attr title "received packet byte length, sum"
attr unit bytes
statistic Mesh.node[62].queue[1] rxBytes:histogram
field count 0
field mean nan
field stddev nan
field min nan
field max nan
field sum 0
field sqrsum 0
attr interpolationmode none
attr title "received packet byte length, histogram"
attr unit bytes
bin	-inf	0
bin	0	0
bin	1	0
scalar Mesh.node[62].queue[1] txBytes:count 116
attr interpolationmode none
attr title "transmitting packet byte length, count"
attr unit bytes
scalar Mesh.node[62].queue[1] txBytes:sum 475136
attr interpolationmode none
attr title "transmitting packet byte length, sum"
attr unit bytes
statistic Mesh.node[62].queue[1] txBytes:histogram
field count 116
field mean 4096
field stddev 0
field min 4096
field max 4096
field sum 475136
field sqrsum 1946157056
attr interpolationmode none
attr title "transmitting packet byte length, histogram"
attr unit bytes
bin	-inf	0
bin	4095	0
bin	4096	116
bin	4097	0
scalar Mesh.node[62].queue[1] busy:timeavg 3.5867526313729e-005
attr interpolationmode sample-hold
attr title "server busy state, timeavg"
scalar Mesh.node[62].queue[1] qlen:timeavg 0
attr interpolationmode sample-hold
attr title "queue length, timeavg"
scalar Mesh.node[62].queue[1] qlen:max 0
attr interpolationmode sample-hold
attr title "queue length, max"
scalar Mesh.node[62].queue[1] drop:count 0
attr interpolationmode none
attr title "dropped packet byte length, count"
attr unit bytes
scalar Mesh.node[62].queue[1] drop:sum 0
attr interpolationmode none
attr title "dropped packet byte length, sum"
attr unit bytes
scalar Mesh.node[62].queue[2] rxBytes:count 0
attr interpolationmode none
attr title "received packet byte length, count"
attr unit bytes
scalar Mesh.node[62].queue[2] rxBytes:sum 0
attr interpolationmode none
attr title "received packet byte length, sum"
attr unit bytes
statistic Mesh.node[62].queue[2] rxBytes:histogram
field count 0
field mean nan
field stddev nan
field min nan
field max nan
field sum 0
field sqrsum 0
attr interpolationmode none
attr title "received packet byte length, histogram"
attr unit bytes
bin	-inf	0
bin	0	0
bin	1	0
scalar Mesh.node[62].queue[2] txBytes:count 0
attr interpolationmode none
attr title "transmitting packet byte length, count"
attr unit bytes
scalar Mesh.node[62].queue[2] txBytes:sum 0
attr interpolationmode none
attr title "transmitting packet byte length, sum"
attr unit bytes
statistic Mesh.node[62].queue[2] txBytes:histogram
field count 0
field mean nan
field stddev nan
field min nan
field max nan
field sum 0
field sqrsum 0
attr interpolationmode none
attr title "transmitting packet byte length, histogram"
attr unit bytes
bin	-inf	0
bin	0	0
bin	1	0
scalar Mesh.node[62].queue[2] busy:timeavg 0
attr interpolationmode sample-hold
attr title "server busy state, timeavg"
scalar Mesh.node[62].queue[2] qlen:timeavg 0
attr interpolationmode sample-hold
attr title "queue length, timeavg"
scalar Mesh.node[62].queue[2] qlen:max 0
attr interpolationmode sample-hold
attr title "queue length, max"
scalar Mesh.node[62].queue[2] drop:count 0
attr interpolationmode none
attr title "dropped packet byte length, count"
attr unit bytes
scalar Mesh.node[62].queue[2] drop:sum 0
attr interpolationmode none
attr title "dropped packet byte length, sum"
attr unit bytes
scalar Mesh.node[62].queue[3] rxBytes:count 0
attr interpolationmode none
attr title "received packet byte length, count"
attr unit bytes
scalar Mesh.node[62].queue[3] rxBytes:sum 0
attr interpolationmode none
attr title "received packet byte length, sum"
attr unit bytes
statistic Mesh.node[62].queue[3] rxBytes:histogram
field count 0
field mean nan
field stddev nan
field min nan
field max nan
field sum 0
field sqrsum 0
attr interpolationmode none
attr title "received packet byte length, histogram"
attr unit bytes
bin	-inf	0
bin	0	0
bin	1	0
scalar Mesh.node[62].queue[3] txBytes:count 0
attr interpolationmode none
attr title "transmitting packet byte length, count"
attr unit bytes
scalar Mesh.node[62].queue[3] txBytes:sum 0
attr interpolationmode none
attr title "transmitting packet byte length, sum"
attr unit bytes
statistic Mesh.node[62].queue[3] txBytes:histogram
field count 0
field mean nan
field stddev nan
field min nan
field max nan
field sum 0
field sqrsum 0
attr interpolationmode none
attr title "transmitting packet byte length, histogram"
attr unit bytes
bin	-inf	0
bin	0	0
bin	1	0
scalar Mesh.node[62].queue[3] busy:timeavg 0
attr interpolationmode sample-hold
attr title "server busy state, timeavg"
scalar Mesh.node[62].queue[3] qlen:timeavg 0
attr interpolationmode sample-hold
attr title "queue length, timeavg"
scalar Mesh.node[62].queue[3] qlen:max 0
attr interpolationmode sample-hold
attr title "queue length, max"
scalar Mesh.node[62].queue[3] drop:count 0
attr interpolationmode none
attr title "dropped packet byte length, count"
attr unit bytes
scalar Mesh.node[62].queue[3] drop:sum 0
attr interpolationmode none
attr title "dropped packet byte length, sum"
attr unit bytes

