version 2
run Mesh-0-20190225-16:24:57-20908
attr configname Mesh
attr datetime 20190225-16:24:57
attr experiment Mesh
attr inifile omnetpp.ini
attr iterationvars ""
attr iterationvarsf ""
attr measurement ""
attr network networks.Mesh
attr processid 20908
attr repetition 0
attr replication #0
attr resultdir results
attr runnumber 0
attr seedset 0
param **.destAddresses "\"0 18 52\""
param **.appType "\"App\""
param **.app.packetLength "4096 bytes"

vector 0 Mesh.node[52].app endToEndDelay:vector ETV
attr interpolationmode none
attr title "end-to-end delay of arrived packets, vector"
attr unit s
vector 1 Mesh.node[0].app endToEndDelay:vector ETV
attr interpolationmode none
attr title "end-to-end delay of arrived packets, vector"
attr unit s
vector 2 Mesh.node[18].app endToEndDelay:vector ETV
attr interpolationmode none
attr title "end-to-end delay of arrived packets, vector"
attr unit s
0	19	0.020956660399	0.000531072
0	50	0.059314045093	0.000929376
0	100	0.078282614294	0.000929376
0	235	0.1547296805	0
0	250	0.20660158603	0.000398304
0	291	0.307545888153	0.000265536
0	451	0.354354051138	0.001194912
0	474	0.412241836243	0.00066384
0	548	0.535831256228	0.000265536
0	583	0.55211063067	0.001062144
0	664	0.588202421247	0.000929376
0	699	0.616557639941	0.001062144
0	710	0.619194995627	0.000265536
0	725	0.636710807725	0.000398304
0	736	0.641827470031	0.000132768
0	810	0.650375724251	0.000929376
0	832	0.73509718919	0.000132768
0	851	0.738358363756	0.000531072
0	917	0.753470721313	0.000796608
0	924	0.770967426467	0.000132768
0	958	0.791279885263	0.000132768
0	1001	0.797202184566	0.00132768
0	1024	0.824743066165	0.00066384
0	1185	0.977935802393	0.000929376
0	1312	1.038955908664	0.000796608
0	1466	1.172680012682	0.000796608
0	1513	1.250259716026	0.00132768
0	1567	1.256992902047	0.001062144
0	1601	1.275626006224	0.000398304
0	1612	1.31341689332	0.000265536
0	1639	1.31825399113	0.000796608
0	1888	1.468360160534	0.000531072
0	1961	1.488785897752	0.000531072
0	2243	1.605770629062	0.000531072
0	2392	1.730256815203	0.000132768
0	2489	1.788284271439	0.000796608
0	2601	1.880158966203	0.001194912
0	2612	1.885878444748	0.000265536
0	2716	1.94968787807	0.000929376
0	2867	1.987083567618	0.00066384
0	3100	2.041290519912	0.000398304
0	3204	2.115665475798	0.000929376
0	3363	2.22101136009	0.000531072
0	3404	2.252932609977	0.000265536
0	3480	2.312549984308	0.00066384
0	3601	2.38747413182	0.00132768
0	3932	2.576624693202	0.000531072
0	4004	2.629108516508	0.000398304
0	4066	2.663002068858	0.00132768
0	4191	2.728866499287	0.001062144
0	4284	2.885864967155	0.000531072
0	4295	2.894686013987	0.000265536
0	4407	2.959151569057	0.000796608
0	4562	3.122904459484	0.000132768
0	4739	3.19068023221	0.000929376
0	4809	3.21511517653	0.001194912
0	4887	3.29726023054	0.001062144
0	4971	3.315708887928	0.000796608
0	4982	3.339835353393	0.000265536
0	5020	3.396112321741	0.000265536
0	5043	3.407467023203	0.00066384
0	5115	3.524083570585	0.000929376
0	5246	3.718846742096	0.000132768
0	5273	3.721575253272	0.000796608
0	5284	3.727812076647	0.000265536
0	5315	3.732094893459	0.000929376
0	5346	3.738069844544	0.000929376
0	5376	3.782217911461	0.000265536
0	5399	3.820136640662	0.00066384
0	5418	3.841795410978	0.000531072
0	5463	3.951101515409	0.000531072
0	5521	4.020693035536	0.000929376
0	5586	4.052375514369	0.00066384
0	5717	4.164424266322	0.000796608
0	5900	4.222580263668	0.001194912
0	5927	4.230777740138	0.000796608
0	6061	4.283470989805	0.000265536
0	6219	4.369276533469	0.000796608
0	6246	4.37372268762	0.000796608
0	6339	4.409128547125	0.001194912
0	6346	4.421350095089	0.000132768
0	6380	4.438056336184	0.000531072
0	6391	4.460054482908	0.000265536
0	6525	4.581799598452	0.000796608
0	6648	4.651677827245	0.000398304
0	6690	4.706659560666	0.000265536
0	6731	4.716053046366	0.000132768
0	6857	4.87653759202	0.000929376
0	7036	4.945183942184	0.00132768
0	7205	5.032275134901	0.001194912
0	7228	5.052217083086	0.00066384
0	7486	5.178733793593	0.000929376
0	7509	5.204687878052	0.00066384
0	7535	5.261716902275	0.000398304
0	7570	5.282264943479	0.001062144
0	7577	5.312602963243	0.000132768
0	7638	5.372218119986	0.000265536
0	7734	5.524385280549	0.000796608
0	7764	5.529570006737	0.000531072
0	7896	5.561373077177	0.000531072
0	7962	5.650557134206	0.00066384
0	7985	5.660001847203	0.00066384
0	8042	5.690157931066	0.000398304
0	8126	5.766601797404	0.000398304
0	8172	5.795581356419	0.00066384
0	8349	5.904068211159	0.000929376
0	8586	6.052122419527	0.001194912
0	8605	6.054189101707	0.000531072
0	8643	6.065093754279	0.000398304
0	8678	6.07043010592	0.001062144
0	8721	6.073320955805	0.00132768
0	8752	6.079094936729	0.000929376
0	8779	6.09097283293	0.000796608
0	8798	6.131136546402	0.000531072
0	8841	6.136165395581	0.00132768
0	9071	6.281447631188	0.000796608
0	9121	6.286481554723	0.000132768
0	9144	6.303380897795	0.00066384
0	9163	6.334374227785	0.000531072
0	9288	6.364567020004	0.001194912
0	9303	6.387131426518	0.000398304
0	9322	6.436737570588	0.000531072
0	9430	6.552273464319	0.000929376
0	9441	6.600921151353	0.000265536
0	9542	6.666459487271	0.000796608
0	9577	6.676499766846	0.001062144
0	9623	6.68368255506	0.000929376
0	9638	6.702681933343	0.000398304
0	9661	6.715081475668	0.00066384
0	9684	6.736274986621	0.00066384
0	9715	6.737619511478	0.000929376
0	9730	6.7559389254	0.000398304
0	9836	6.848459245183	0.000132768
0	9913	6.880014570011	0.001194912
0	9971	6.916314543279	0.000796608
0	10059	6.960991118553	0.000929376
0	10229	7.031203587286	0.000531072
0	10298	7.052668290329	0.001062144
0	10309	7.059040739919	0.000265536
0	10312	7.122937029083	0
0	10463	7.166503743956	0.000398304
0	10486	7.193658046738	0.00066384
0	10505	7.232776594222	0.000531072
0	10540	7.246889522294	0.000398304
0	10742	7.284010039516	0.000796608
0	10764	7.315328397677	0.000398304
0	10818	7.373181090578	0.000531072
0	10856	7.383628629824	0.000531072
0	10995	7.456581868213	0.000531072
0	11025	7.500256938806	0.00066384
0	11063	7.541462737644	0.000531072
0	11097	7.558529590839	0.000132768
0	11186	7.604330983897	0.000796608
0	11189	7.642068776032	0
0	11290	7.727912371835	0.000531072
0	11416	7.881260637308	0.000398304
0	11593	8.039254035975	0.00066384
0	11604	8.050243020829	0.000265536
0	11635	8.051657261365	0.000929376
0	11795	8.178240615904	0.000531072
0	11874	8.189727175659	0.000265536
0	12036	8.241965893709	0.000929376
0	12079	8.272269591008	0.001062144
0	12138	8.273199831508	0.001062144
0	12179	8.344490967203	0.000531072
0	12541	8.584078529239	0.000531072
0	12633	8.634159236411	0.000929376
0	12766	8.711635739206	0.000929376
0	12789	8.720891181776	0.00066384
0	12885	8.80775964546	0.000531072
0	12923	8.823110469942	0.000531072
0	12950	8.837444272213	0.000265536
0	13019	8.846551036039	0.001194912
0	13065	8.861861767034	0.001062144
0	13104	8.883565023173	0.001194912
0	13150	8.908712487161	0.000929376
0	13290	8.953547673215	0.000929376
0	13354	9.077704499846	0.000265536
0	13412	9.112705567441	0.001062144
0	13575	9.22603937803	0.000929376
0	13614	9.237763637259	0.001194912
0	13678	9.301357461821	0.000398304
0	13704	9.315757114098	0.000265536
0	13920	9.413988327851	0.000265536
0	13959	9.421187387373	0.001194912
0	14001	9.429394350866	0.001062144
0	14152	9.462794906368	0.000265536
0	14282	9.547479742067	0.000265536
0	14507	9.689818228008	0.001062144
0	14603	9.728710551915	0.000929376
0	14641	9.773244588487	0.00066384
0	14752	9.935529974558	0.000398304
0	14794	9.965638474223	0.000398304
0	14825	9.970820275162	0.000929376
0	14922	10.048370247692	0.000265536
0	14983	10.05936706382	0.000531072
0	15036	10.102220054846	0.000929376
0	15051	10.13723502936	0.000398304
0	15062	10.169147800318	0.000265536
0	15165	10.250327047735	0.001062144
0	15609	10.494375556922	0.000531072
0	15710	10.513487944341	0.001062144
0	15725	10.514094036665	0.000398304
0	15771	10.522661340645	0.00066384
0	15843	10.640999119213	0.000265536
0	16032	10.715203230934	0.000398304
0	16051	10.716931193901	0.000531072
0	16086	10.721016520628	0.001062144
0	16105	10.723556052221	0.000531072
0	16116	10.726123321654	0.000265536
0	16182	10.755736226629	0.000929376
0	16307	10.765576178246	0.00132768
0	16326	10.773968195296	0.000531072
0	16455	10.838011713366	0.000531072
0	16497	10.894637349071	0.00066384
0	16528	10.901809041127	0.000929376
0	16562	10.910415992905	0.000531072
0	16580	10.960032335623	0.000132768
0	16618	10.97296375857	0.00066384
0	16790	11.144473039196	0.000531072
0	16956	11.215914373161	0.00132768
0	16971	11.22268139494	0.000398304
0	17056	11.295958442059	0.000796608
0	17090	11.320842523697	0.000796608
0	17166	11.356845566532	0.000265536
0	17196	11.395492653152	0.000398304
0	17273	11.469516615166	0.000531072
0	17411	11.538406368062	0.00066384
0	17460	11.630190639342	0.000132768
0	17518	11.694634463929	0.000929376
0	17633	11.803366462714	0.000531072
0	17679	11.84291571658	0.000265536
0	17759	11.902525252953	0.000796608
0	17798	11.917737146435	0.001194912
0	17848	11.974896360653	0.000398304
0	17961	12.032121984289	0.001062144
0	18038	12.097246120902	0.000265536
0	18157	12.175403579412	0.001062144
0	18341	12.256877956167	0.00132768
0	18448	12.322874549881	0.000398304
0	18467	12.368923025151	0.000531072
0	18715	12.57296957868	0.001194912
0	18769	12.581882399816	0.000531072
0	18804	12.624839598047	0.001062144
0	18823	12.642637673129	0.000531072
0	18858	12.661236687932	0.001062144
0	18881	12.71064915619	0.00066384
0	18904	12.725782292305	0.00066384
0	18939	12.727303720558	0.001062144
0	18974	12.734272059744	0.001062144
0	19090	12.767253222063	0.000531072
0	19171	12.839214576863	0.001062144
0	19263	12.904309472011	0.000929376
0	19302	12.959642040244	0.001194912
0	19337	12.991950884105	0.001062144
0	19364	13.017751012078	0.000796608
0	19387	13.040576373481	0.00066384
0	19437	13.065261963244	0.001194912
0	19483	13.105912796258	0.000929376
0	19552	13.164028137697	0.001062144
0	19635	13.307115321744	0.00066384
0	19776	13.388545067108	0.000796608
0	19989	13.526731653117	0.00066384
0	20000	13.53732819784	0.000265536
0	20007	13.542470839945	0.000132768
0	20197	13.677997554587	0.001062144
0	20209	13.678374194313	0.00066384
0	20215	13.699215411496	0
0	20231	13.69972075185	0.000531072
0	20277	13.710995382811	0.000929376
0	20451	13.862561333007	0.000265536
0	20578	13.927735528827	0.000929376
0	20681	14.015900709511	0.000531072
0	20708	14.027659898066	0.000796608
0	20739	14.03432734902	0.000929376
0	20929	14.078763636881	0.000796608
0	20948	14.087497858574	0.000531072
0	20971	14.133954474097	0.00066384
0	21114	14.182766722942	0.00132768
0	21160	14.203897190992	0.001062144
0	21217	14.23223528542	0.00066384
0	21282	14.28761170606	0.000398304
0	21309	14.302144570271	0.000796608
0	21335	14.34286927705	0.000398304
0	21400	14.369351762597	0.000398304
0	21574	14.420700018636	0.00066384
0	21601	14.438762456499	0.000796608
0	21620	14.449072308243	0.000531072
0	21760	14.648506951776	0.000398304
0	21801	14.703862313684	0.000398304
0	21843	14.749291757495	0.001062144
0	22041	14.799454329247	0.00132768
0	22187	14.914329798505	0.000796608
0	22342	14.972284176705	0.001062144
0	22361	14.976920189464	0.000531072
0	22411	15.032133890126	0.000796608
0	22484	15.044988333657	0.000531072
0	22577	15.084817014334	0.000398304
0	22592	15.102384399218	0.000398304
0	22812	15.222538431994	0.001194912
0	22874	15.251160734596	0.000796608
0	22877	15.251252341625	0.00066384
0	22895	15.269462678747	0
0	23104	15.475692415155	0.00066384
0	23228	15.593558326581	0.000531072
0	23251	15.595113793123	0.00066384
0	23335	15.633190592504	0.000929376
0	23393	15.669726517814	0.000398304
0	23411	15.6720431636	0.000132768
0	23495	15.776475986008	0.000929376
0	23522	15.810052391809	0.000796608
0	23545	15.84094470524	0.00066384
0	23740	15.94364167192	0.00066384
0	23817	15.972152307925	0.001194912
0	23856	15.994848545835	0.001194912
0	23960	16.116756847891	0.000796608
0	23983	16.133811744436	0.00066384
0	24064	16.164739211956	0.000531072
0	24098	16.174969722725	0.000132768
0	24166	16.219669725329	0.000132768
0	24240	16.246648877953	0.000929376
0	24305	16.323417460852	0.000929376
0	24328	16.371933961267	0.00066384
0	24355	16.378244472276	0.000796608
0	24386	16.392334977611	0.000929376
0	24401	16.401845180263	0.000398304
0	24482	16.420204692171	0.000531072
0	24493	16.422380693685	0.000265536
0	24566	16.45424254689	0.000796608
0	24593	16.47686864935	0.000796608
0	24682	16.49917626194	0.001062144
0	24724	16.559157866566	0.000132768
0	24759	16.562482503999	0.001062144
0	24817	16.607743476016	0.001062144
0	24986	16.784410684387	0.000796608
0	24993	16.784810822806	0.000132768
0	25016	16.818305924404	0.00066384
0	25073	16.884297463221	0.000531072
0	25173	16.962959147258	0.000132768
0	25273	17.066116252442	0.001062144
0	25319	17.102813155933	0.00066384
0	25346	17.109554028931	0.000796608
0	25383	17.13120017786	0.000531072
0	25402	17.169962178806	0.000531072
0	25606	17.329177737533	0.000265536
0	25637	17.331823437763	0.000929376
0	25722	17.340804178804	0.001062144
0	25800	17.403054919842	0.00132768
0	25815	17.410916909963	0.000398304
0	25842	17.416405472018	0.000796608
0	25910	17.447037331749	0.000132768
0	25944	17.473487142896	0.000398304
0	26331	17.731082695634	0.000796608
0	26354	17.84328016274	0.00066384
0	26404	17.849893727765	0.000265536
0	26435	17.855236802065	0.000929376
0	26454	17.867464938497	0.000531072
0	26547	17.916073642979	0.000929376
0	26581	17.945514547715	0.000531072
0	26604	17.961336351534	0.00066384
0	26638	18.002207199112	0.000398304
0	26739	18.041493971443	0.00132768
0	26778	18.105562486755	0.001194912
0	26809	18.113730909892	0.000929376
0	26852	18.121252934704	0.00132768
0	26914	18.164598492657	0.001062144
0	26941	18.190896684417	0.000796608
0	26998	18.219034791659	0.000398304
0	27083	18.248542579957	0.000265536
0	27160	18.382977919536	0.000929376
0	27252	18.44317132302	0.000796608
0	27279	18.445237003393	0.000796608
0	27348	18.492726202506	0.000531072
0	27406	18.503416714528	0.000929376
0	27425	18.528245698041	0.000531072
0	27556	18.659321766702	0.000132768
0	27622	18.684085196303	0.000398304
0	27661	18.69231170896	0.001194912
0	27680	18.699726713926	0.000265536
0	27757	18.726989430369	0.000929376
0	27784	18.731894624004	0.000796608
0	27857	18.765981813653	0.000398304
0	28050	18.899843891917	0.000531072
0	28061	18.905710229736	0.000265536
0	28123	18.93059091988	0.000531072
0	28134	18.930947391554	0.001062144
0	28212	18.955677905113	0.000531072
0	28219	18.970678845282	0.000132768
0	28569	19.16271259827	0.000796608
0	28595	19.237285384337	0.000265536
0	28630	19.23936622836	0.001062144
0	28633	19.248422532123	0
0	28711	19.322744994613	0.001062144
0	28757	19.391205990717	0.001194912
0	28800	19.401983557177	0.00132768
0	28843	19.408206296922	0.00132768
0	28936	19.498147301371	0.000929376
0	28955	19.510560125497	0.000531072
0	29005	19.561132992172	0.000531072
0	29024	19.568205861828	0.000531072
0	29089	19.580542992716	0.001194912
0	29155	19.621327687525	0.000796608
0	29182	19.626437779641	0.000796608
0	29197	19.637322375723	0.000398304
0	29288	19.747266259754	0.000796608
0	29348	19.828946779604	0.000132768
0	29492	19.913267669217	0.00066384
0	29544	19.942379776531	0.000132768
0	29602	19.956837556984	0.00066384
0	29683	20.017190086333	0.00066384
0	29709	20.084375837216	0.00066384
0	29747	20.114148411009	0.00066384
0	29909	20.225475051374	0.00066384
0	30296	20.398817603712	0.000531072
0	30353	20.438211659449	0.000265536
0	30376	20.48152631695	0.00066384
0	30399	20.499087312527	0.00066384
0	30467	20.556809197161	0.00066384
0	30486	20.561974708667	0.000531072
0	30516	20.688133295561	0.000398304
0	30551	20.689206019553	0.001194912
0	30585	20.734144250262	0.000531072
0	30747	20.822439757392	0.000929376
0	30774	20.84705629855	0.000796608
0	30785	20.906142784035	0.000265536
0	30843	20.96170219866	0.000796608
0	30878	20.976581227207	0.001062144
0	30917	20.997689825004	0.001194912
0	30979	21.00752694063	0.000929376
0	31071	21.12422642845	0.000531072
0	31125	21.16448358104	0.000929376
0	31344	21.323042185774	0.00132768
0	31464	21.408052390617	0.001194912
0	31570	21.524256492561	0.001062144
0	31609	21.573750239314	0.001194912
0	31628	21.604673729279	0.000531072
0	31728	21.633563910234	0.00066384
0	31739	21.64602920639	0.000265536
0	31769	21.659360464294	0.00066384
0	31818	21.733749046453	0.000265536
0	32119	21.914174552513	0.000398304
0	32134	21.931412434475	0.000398304
0	32164	21.940824278111	0
0	32226	21.955405121568	0.000531072
0	32286	21.993456671667	0.000796608
0	32358	22.025743139444	0.000398304
0	32496	22.139899442385	0.00066384
0	32717	22.255126289126	0.000398304
0	32732	22.283165315795	0.000398304
0	32798	22.296251141431	0.001194912
0	32817	22.30779126675	0.000531072
0	32832	22.321981530111	0.000398304
0	32835	22.332111220802	0
0	32849	22.34552281754	0.000132768
0	32872	22.391919823686	0.00066384
0	32948	22.46561558151	0.00066384
0	33204	22.590142525506	0.000796608
0	33252	22.670601811075	0.000265536
0	33287	22.682497778682	0.001062144
0	33344	22.722920329361	0.000265536
0	33379	22.724118441329	0.001062144
0	33514	22.782202556084	0.000796608
0	33537	22.844536097765	0.00066384
0	33595	22.902618088764	0.000531072
0	33672	22.930949032153	0.000796608
0	33757	22.958581024541	0.000531072
0	33827	23.001134495014	0.00066384
0	34157	23.170300113021	0.000796608
0	34285	23.282839138413	0.000265536
0	34370	23.32388036898	0.000531072
0	34381	23.331526369114	0.000265536
0	34416	23.334339559894	0.001062144
0	34423	23.345212204958	0.000132768
0	34454	23.355922170825	0.000929376
0	34473	23.366610456904	0.000531072
0	34488	23.375658080022	0.000398304
0	34515	23.415139831724	0.000796608
0	34538	23.422445541912	0.00066384
0	34561	23.423349234296	0.00066384
0	34743	23.513484274536	0.000265536
0	34867	23.562646332709	0.00066384
0	34951	23.575107739815	0.00066384
0	34977	23.625093902415	0.000531072
0	35014	23.737493804327	0.000531072
0	35099	23.761621566252	0.001062144
0	35211	23.789922903105	0.000796608
0	35310	23.867666077911	0.00066384
0	35359	23.928239173994	0.000398304
0	35366	23.939833690726	0.000132768
0	35600	24.013652457361	0.000796608
0	35638	24.019343779049	0.00066384
0	35669	24.034603310481	0.00066384
0	35719	24.042893917841	0.000265536
0	35835	24.073843251112	0.001062144
0	35911	24.164168406896	0.000398304
0	35926	24.179984970956	0.000398304
0	36041	24.29571548386	0.000796608
0	36115	24.309551501478	0.001062144
0	36173	24.342885145236	0.00132768
0	36261	24.396978068167	0.000796608
0	36326	24.425901541231	0.000132768
0	36391	24.447556424774	0.000531072
0	36434	24.449719218479	0.00132768
0	36464	24.46676895562	0.000398304
0	36513	24.478759360404	0.00066384
0	36606	24.557014821128	0.000929376
0	36697	24.619197389528	0.00066384
0	36852	24.712461468249	0.000132768
0	36975	24.825324948594	0.000132768
0	36982	24.867335605733	0.000132768
0	37021	24.889294280752	0.001194912
0	37256	25.012963418806	0.000929376
0	37298	25.057210971158	0.000132768
0	37325	25.076273574409	0.000796608
0	37360	25.085737854962	0.001062144
0	37461	25.127403269092	0.000929376
0	37556	25.188171876034	0.000531072
0	37575	25.204928648042	0.000531072
0	37640	25.234015282013	0.000398304
0	37679	25.239689492202	0.000796608
0	37733	25.24938022271	0.00132768
0	37798	25.286379475877	0.000796608
0	37829	25.295008471633	0.000929376
0	37952	25.359237364872	0.000398304
0	37979	25.364201956436	0.000796608
0	38021	25.428982022902	0.000265536
0	38144	25.494780207681	0.000929376
0	38190	25.548048674892	0.001062144
0	38205	25.552843759826	0.000398304
0	38348	25.575710205775	0.000531072
0	38500	25.717105689079	0.000132768
0	38546	25.724620701053	0.000398304
0	38569	25.728584333521	0.00066384
0	38720	25.792838741445	0.000929376
0	38873	25.935254741042	0.000265536
0	38876	25.935878301849	0
0	38925	25.949864943538	0.00066384
0	38936	25.981507594477	0.000265536
0	38963	25.986916181331	0.000796608
0	39059	26.028520825724	0.00066384
0	39082	26.037143853491	0.00066384
0	39268	26.100996840708	0.00066384
0	39371	26.196560235114	0.000132768
0	39622	26.331334486418	0.001062144
0	39683	26.366474316959	0.001062144
0	39694	26.437568862077	0.000265536
0	39786	26.510976355837	0.001194912
0	39797	26.522753365057	0.000265536
0	39929	26.675516956685	0.000265536
0	40088	26.771644138363	0.000796608
0	40222	26.938786868945	0.000796608
0	40302	26.970470031851	0.000132768
0	40337	27.009416026368	0.001062144
0	40510	27.169871010016	0.00066384
0	40646	27.302986639386	0.001062144
0	40731	27.370532959047	0.001194912
0	40753	27.378810153383	0.000531072
0	40865	27.503991832882	0.000796608
0	40914	27.531829109096	0.000929376
0	40952	27.620070778117	0.000796608
0	40987	27.629652562115	0.001062144
0	41098	27.685864501553	0.000796608
0	41128	27.702782401356	0.000265536
0	41193	27.738673137994	0.000531072
0	41216	27.762834730995	0.00066384
0	41243	27.77294770401	0.000796608
0	41258	27.780098880412	0.000398304
0	41289	27.822956305627	0.000929376
0	41347	27.859076380702	0.000796608
0	41475	27.969997591795	0.000796608
0	41521	27.996994907361	0.00066384
0	41544	28.010000228908	0.00066384
0	41656	28.05181327685	0.00066384
0	41994	28.135225840753	0.000398304
0	42035	28.221245997649	0.00066384
0	42121	28.251735053139	0.000929376
0	42179	28.273497458758	0.000796608
0	42190	28.274409612799	0.000265536
0	42272	28.323735748838	0.001194912
0	42435	28.428242429483	0.001062144
0	42672	28.49939069638	0.00066384
0	42707	28.532885499062	0.000929376
0	42899	28.700596665323	0.001062144
0	43032	28.73757269359	0.000929376
0	43059	28.7440475125	0.000796608
0	43158	28.827652853051	0.000929376
0	43222	28.866797735732	0.000531072
0	43605	29.14622159269	0.00066384
0	43616	29.156145267879	0.000265536
0	43743	29.226981202484	0.000132768
0	43758	29.234133151483	0.000398304
0	43799	29.280635484125	0.000265536
0	44175	29.455675228407	0.001062144
0	44347	29.55349262064	0.000132768
0	44358	29.587670345675	0.000265536
0	44397	29.622257192247	0.001194912
0	44476	29.630665294694	0.000398304
0	44546	29.654679421618	0.00066384
0	44608	29.69828120176	0.00132768
0	44646	29.734854998922	0.000531072
0	44653	29.735106937497	0.000132768
0	44676	29.758687748987	0.00066384
0	44722	29.794359940475	0.001062144
0	44737	29.816534358156	0.000398304
0	44823	29.845614122082	0.001194912
0	44834	29.859780035494	0.000265536
0	44853	29.861274118263	0.000531072
0	44918	29.97831966822	0.000398304
0	45026	30.025163481069	0.000796608
0	45123	30.078234829522	0.000929376
0	45150	30.089876302586	0.000796608
0	45222	30.134851827609	0.000531072
0	45283	30.176666572804	0.000398304
0	45488	30.299708738023	0.000398304
0	45591	30.405915013942	0.00066384
0	45610	30.409222890687	0.000531072
0	45672	30.505184126286	0.00066384
0	45695	30.517657171786	0.00066384
0	45734	30.526420899104	0.001194912
0	45780	30.551126322796	0.000398304
0	45861	30.574016988003	0.001194912
0	45899	30.598183782086	0.000265536
0	45918	30.62626446576	0.000531072
0	45968	30.661178036941	0.000796608
0	46056	30.73963281324	0.000531072
0	46214	30.84778991867	0.001194912
0	46438	30.945904089371	0.001062144
0	46716	31.083627175238	0.000531072
0	46867	31.135485268063	0.000531072
0	46971	31.171855154642	0.000531072
0	46982	31.188361008406	0.000265536
0	47016	31.211815201833	0.000132768
0	47120	31.271871252862	0.00066384
0	47378	31.465212629674	0.000531072
0	47539	31.611105054254	0.000531072
0	47719	31.810304098323	0.001062144
0	47841	31.881767310482	0.000398304
0	47875	31.93030933015	0.000265536
0	47940	32.037150826108	0.001062144
0	47974	32.046923898004	0.000796608
0	47989	32.060541764884	0.000398304
0	48012	32.076019922144	0.00066384
0	48023	32.09100550526	0.000265536
0	48061	32.156244219109	0.000796608
0	48126	32.170338088209	0.000398304
0	48285	32.22776040411	0.000929376
0	48374	32.245636117847	0.000265536
0	48497	32.323523898669	0.000398304
0	48639	32.470583474409	0.000531072
0	48685	32.512604048546	0.000796608
0	48700	32.517327652636	0.000398304
0	48785	32.551482839381	0.000929376
0	48877	32.608398958703	0.000531072
0	48880	32.686112526585	0
0	48960	32.790617495098	0.000531072
0	49118	32.886093973767	0.00066384
0	49191	32.920278028691	0.000929376
0	49225	32.945373904766	0.000531072
0	49244	32.965391381747	0.000531072
0	49305	33.043630416647	0.000398304
0	49452	33.149321772512	0.001062144
0	49459	33.14945874437	0.00066384
0	49582	33.296397547647	0
0	49693	33.328899509259	0.001062144
0	49708	33.34914149431	0.000398304
0	49785	33.407015892519	0.000132768
0	49823	33.440575421002	0.00066384
0	49975	33.503649450103	0.00132768
0	50056	33.539046414713	0.001062144
0	50215	33.607224206751	0.00132768
0	50304	33.666310493297	0.00066384
0	50366	33.700748593211	0.001062144
0	50416	33.716521158803	0.00066384
0	50469	33.83595395894	0.000132768
0	50546	33.858679376898	0.000531072
0	50649	33.923904033452	0.000265536
0	50758	34.027765526734	0.000929376
0	50773	34.02883390443	0.000398304
0	50827	34.069796009011	0.000796608
0	50838	34.083222508954	0.000265536
0	50873	34.106442066233	0.001062144
0	50892	34.12079450123	0.000531072
0	51083	34.311604979659	0.000132768
0	51194	34.375106044232	0.001062144
0	51213	34.38320651951	0.000531072
0	51314	34.468718134172	0.00066384
0	51349	34.484574984615	0.001062144
0	51364	34.485774111298	0.000398304
0	51445	34.501995559245	0.000531072
0	51525	34.578270811994	0.00066384
0	51571	34.609267567667	0.000398304
0	51718	34.694731332528	0.000796608
0	51744	34.746024926877	0.000132768
0	51763	34.750314830568	0.000531072
0	51837	34.760967919735	0.00132768
0	51886	34.803057663151	0.000265536
0	51932	34.815176407092	0.000398304
0	52017	34.821121976571	0.000929376
0	52129	34.897212406526	0.000531072
0	52182	34.999235608901	0.000531072
0	52220	35.020241089082	0.000531072
0	52262	35.028519567628	0.000398304
0	52355	35.074517001995	0.001062144
0	52419	35.125624456803	0.000265536
0	52434	35.140907677343	0.000398304
0	52477	35.175364232175	0.000531072
0	52511	35.178018923292	0.000929376
0	52570	35.192597537624	0.000796608
0	52592	35.216827991047	0.000398304
0	52611	35.269165032328	0.000531072
0	52684	35.327233253701	0.000531072
0	52699	35.330690834771	0.000398304
0	52714	35.348414547244	0.000398304
0	52745	35.376840262536	0.000929376
0	52989	35.471548902848	0.001194912
0	53028	35.489043801644	0.001194912
0	53096	35.562715524411	0.000398304
0	53154	35.570313114911	0.001062144
0	53165	35.580430789747	0.000265536
0	53307	35.691336383244	0.000398304
0	53404	35.71636414496	0.000398304
0	53519	35.790277243677	0.000929376
0	53794	35.910249462394	0.001194912
0	53969	35.957998575894	0.000929376
0	54023	35.976222007841	0.000929376
0	54080	35.993475105798	0.000531072
0	54177	36.009419246693	0.00066384
0	54340	36.096265938122	0.000796608
0	54419	36.206531766225	0.000265536
0	54465	36.280982844085	0.001062144
0	54480	36.300933141622	0.000398304
0	54588	36.330479151024	0.000398304
0	54638	36.409083494979	0.000531072
0	54676	36.445729685528	0.000398304
0	54725	36.517292547726	0.000398304
0	54763	36.534243870956	0.000132768
0	54778	36.573981063134	0.000398304
0	54918	36.652382151082	0.001194912
0	54953	36.666157230904	0.001062144
0	55014	36.72895908579	0.000398304
0	55052	36.740270116738	0.000265536
0	55105	36.802587920384	0.000531072
0	55124	36.808184760926	0.000531072
0	55143	36.812403227269	0.000531072
0	55271	36.991811306132	0.000398304
0	55376	37.051352752994	0.000929376
0	55780	37.242315891944	0.000265536
0	55807	37.261102786615	0.000796608
0	55887	37.333666448322	0.001062144
0	55902	37.340906066838	0.000398304
0	56037	37.465118061975	0.000796608
0	56112	37.553889367165	0.000265536
0	56216	37.605754642069	0.000398304
0	56277	37.617567121544	0.000132768
0	56416	37.665645877434	0.00132768
0	56481	37.729647857	0.000531072
0	56608	37.821254889959	0.000265536
0	56724	37.884099470124	0.001194912
0	56946	38.052635267923	0.000398304
0	56981	38.083930377332	0.001062144
0	57016	38.110416393089	0.001062144
0	57080	38.135451122879	0.00066384
0	57207	38.180797096456	0.000398304
0	57447	38.264470695337	0.000398304
0	57540	38.321656455432	0.001062144
0	57641	38.372770016282	0.001062144
0	57707	38.399031121656	0.000398304
0	57841	38.426300206895	0.001062144
0	58002	38.528099019776	0.00066384
0	58029	38.529302105414	0.000796608
0	58131	38.584734065693	0.001194912
0	58154	38.594271427698	0.00066384
0	58192	38.63177434555	0.000398304
0	58357	38.757396421852	0.001062144
0	58415	38.778251403667	0.000929376
0	58527	38.82136570116	0.00132768
0	58662	38.897991337457	0.000531072
0	58743	38.932930492903	0.00066384
0	58855	38.965441416518	0.000265536
0	58894	38.973756565689	0.001194912
0	58950	39.042056761224	0.000531072
0	59139	39.069982170302	0.000398304
0	59240	39.112741413038	0.001062144
0	59524	39.222603196169	0.00066384
0	59535	39.241387950332	0.000265536
0	59546	39.278448257283	0.000265536
0	59568	39.301090537572	0.000265536
0	59599	39.308195352367	0.000929376
0	59773	39.372699389133	0.001062144
0	59803	39.40815927132	0.000265536
0	60017	39.510362254348	0.000929376
0	60070	39.531676940016	0.001194912
0	60081	39.554499375747	0.000265536
0	60270	39.612424866592	0.000929376
0	60359	39.625312585052	0.000531072
0	60425	39.639385841616	0.000929376
0	60483	39.688571760549	0.000796608
0	60606	39.734240229055	0.000796608
0	60781	39.783922785215	0.001062144
0	60804	39.821242537648	0.00066384
0	61000	39.911445133341	0.001062144
0	61116	39.944895614526	0.00132768
0	61333	40.111847131528	0.000398304
0	61352	40.11991718042	0.000531072
0	61560	40.217469796052	0.001194912
0	61693	40.230238502178	0.00132768
0	61739	40.236831240124	0.000265536
0	61781	40.299060549799	0.000796608
0	61910	40.422107164869	0.000132768
0	61937	40.447401278082	0.000796608
0	62025	40.507975094654	0.000265536
0	62185	40.56484635402	0.000132768
0	62345	40.710489929386	0.000265536
0	62406	40.774832849965	0.000531072
0	62445	40.781315137905	0.001194912
0	62487	40.809518771323	0.000929376
0	62638	40.864167269778	0.000265536
0	62726	40.966074757134	0.000398304
0	62807	41.032294189292	0.000531072
0	62906	41.09426004285	0.001062144
0	63017	41.160936800488	0.000398304
0	63059	41.17969576629	0.000398304
0	63086	41.183967864972	0.000796608
0	63159	41.235484449202	0.001062144
0	63189	41.255728710629	0.00066384
0	63296	41.371564247558	0.000796608
0	63311	41.372040258934	0.000531072
0	63423	41.418115261713	0.000398304
0	63477	41.42542472167	0.001194912
0	63649	41.49777568014	0.000132768
0	63830	41.64146566893	0.000531072
0	63868	41.668449596987	0.00066384
0	63953	41.699428242933	0.00066384
0	64022	41.734451891371	0.000531072
0	64154	41.749380550156	0.00066384
0	64231	41.786361330772	0.000531072
0	64367	41.906298546739	0.000796608
0	64378	41.917275837311	0.000265536
0	64479	41.978605984984	0.000929376
0	64567	42.006157068847	0.000796608
0	64605	42.052970969904	0.000531072
0	64632	42.058806240342	0.000796608
0	64681	42.077851847472	0.000398304
0	64918	42.181020825451	0.000929376
0	65365	42.413579637652	0.00066384
0	65408	42.418661070598	0.00132768
0	65431	42.448797686341	0.00066384
0	65586	42.47049683553	0.000796608
0	65613	42.484333715459	0.000796608
0	65684	42.593921054757	0.000398304
0	65718	42.617837992675	0.000531072
0	65749	42.626525503436	0.000929376
0	65790	42.681228016134	0.000265536
0	65801	42.684554523242	0.000265536
0	65820	42.688716501875	0.000531072
0	65835	42.714841359116	0.000398304
0	65924	42.734882160401	0.00066384
0	65951	42.740849790876	0.000796608
0	66017	42.77687920585	0.000796608
0	66106	42.834279801036	0.000929376
0	66195	42.856250384074	0.000929376
0	66338	42.906338640942	0.000929376
0	66423	42.915172364786	0.00066384
0	66516	42.962257211024	0.000929376
0	66566	42.990520793645	0.000796608
0	66616	43.007914470979	0.001194912
0	66709	43.043183466695	0.000796608
0	66748	43.118780738987	0.001194912
0	66786	43.140704791572	0.000265536
0	66825	43.175584476276	0.001194912
0	66967	43.267375494093	0.000796608
0	67067	43.393724809187	0.000929376
0	67173	43.478807312371	0.000531072
0	67219	43.529321582329	0.00066384
0	67242	43.557732245185	0.00066384
0	67327	43.608758431005	0.000398304
0	67443	43.642855225873	0.000265536
0	67466	43.698819659552	0.00066384
0	67497	43.716168033394	0.000929376
0	67547	43.763546011493	0.000398304
0	67752	43.837587424663	0.000132768
0	67867	43.921210337238	0.000265536
0	67928	44.008912203751	0.00066384
0	67971	44.01096102011	0.001062144
0	68120	44.092754799015	0.00066384
0	68178	44.101605311962	0.000265536
0	68593	44.343947625248	0.001062144
0	68716	44.402213522959	0.000265536
0	68731	44.405318789112	0.000398304
0	68870	44.480148561067	0.001062144
0	68928	44.564447892299	0.000929376
0	68959	44.578224929558	0.000929376
0	69086	44.697099907631	0.000929376
0	69105	44.697697764199	0.001194912
0	69240	44.729579832779	0.000929376
0	69293	44.771198055792	0.000531072
0	69465	44.948009530053	0.000531072
0	69681	45.12490011259	0.001062144
0	69739	45.164736639926	0.000531072
0	69925	45.287816053539	0.00132768
0	70053	45.35415286337	0.00132768
0	70251	45.425906897242	0.000398304
0	70395	45.456513358331	0.000398304
0	70483	45.509902174817	0.000929376
0	70522	45.511475480101	0.001194912
0	70559	45.538465500701	0.000265536
0	70656	45.580919965388	0.001062144
0	70687	45.59064978873	0.000929376
0	70870	45.678951651651	0.001062144
0	70905	45.682117993439	0.001062144
0	70962	45.699032640218	0.000132768
0	71067	45.735875285073	0.000796608
0	71098	45.73899634953	0.000929376
0	71405	45.911220796719	0.000398304
0	71513	45.946868443662	0.001062144
0	71544	45.953575150172	0.000929376
0	71567	45.955160928241	0.00066384
0	71715	46.111795739329	0.000398304
0	71773	46.190059616825	0.001194912
0	71888	46.232636280585	0.00066384
0	72046	46.291404883792	0.000531072
0	72104	46.304656658203	0.001062144
0	72147	46.316104915702	0.00132768
0	72158	46.332855071296	0.000265536
0	72219	46.342697981822	0.000531072
0	72315	46.438774023815	0.000265536
0	72338	46.451807040796	0.00066384
0	72722	46.67692208714	0.000398304
0	72749	46.686785603881	0.000796608
0	72772	46.69183722134	0.00066384
0	72991	46.792062971761	0.00066384
0	73006	46.802839917528	0.000398304
0	73191	46.896702258351	0.000929376
0	73306	46.972860643049	0.000398304
0	73352	47.009082225312	0.00066384
0	73507	47.096722874148	0.001062144
0	73662	47.206951315691	0.001062144
0	73697	47.219314356811	0.001062144
0	73728	47.241186136999	0.000929376
0	73792	47.308717272047	0.000132768
0	73963	47.385689261238	0.001062144
0	73978	47.438378424936	0.000398304
0	74019	47.475627803386	0.000132768
0	74128	47.508626381047	0.000929376
0	74268	47.555928734127	0.00066384
0	74298	47.591458914757	0.000265536
0	74413	47.660612951188	0.000132768
0	74448	47.663751113706	0.001062144
0	74471	47.670835009675	0.00066384
0	74568	47.721528722009	0.001194912
0	74591	47.798923583309	0.00066384
0	74702	47.93801490506	0.000531072
0	74752	47.958371941923	0.000796608
0	74795	47.965436587759	0.00132768
0	74957	48.06022229084	0.001062144
0	75114	48.139656163887	0.001062144
0	75149	48.159885948606	0.001062144
0	75249	48.189309478639	0.001062144
0	75252	48.195094461339	0
0	75297	48.249645556261	0.00066384
0	75339	48.329597761309	0.000929376
0	75513	48.432727548716	0.000398304
0	75528	48.435538443381	0.000398304
0	75547	48.443254255076	0.000531072
0	75624	48.501833266534	0.000132768
0	75665	48.626868135148	0.000265536
0	75847	48.888251775428	0.000398304
0	75992	48.979804272002	0.000398304
0	76046	48.990877470448	0.000929376
0	76053	48.998944456368	0.000132768
0	76147	49.028528164813	0.001194912
0	76170	49.030986857055	0.00066384
0	76338	49.062405437925	0.00132768
0	76373	49.079485430631	0.001062144
0	76476	49.197708975075	0.000929376
0	76503	49.207103870191	0.000796608
0	76617	49.351591953141	0.00066384
0	76628	49.359206206633	0.000265536
0	76673	49.363237741159	0.000398304
0	76728	49.371353891576	0.00132768
0	76731	49.371424136113	0.000398304
0	76754	49.381533621839	0.00066384
0	76893	49.431890598313	0.000531072
0	76946	49.455794136532	0.000796608
0	77193	49.599560553918	0.00066384
0	77215	49.659202816286	0.000398304
0	77253	49.671009104958	0.000265536
0	77257	49.671121370301	0.000929376
0	77323	49.741237861519	0.000929376
0	77673	50.001539505641	0.001062144
0	77692	50.006406817209	0.000132768
0	77707	50.006850388592	0.000796608
0	77726	50.038852412668	0.000531072
0	77818	50.178772967191	0.00066384
0	77849	50.190729211575	0.000929376
0	77888	50.193486320236	0.001194912
0	77973	50.239963336829	0.000929376
0	77976	50.253647616787	0
0	77983	50.279822020745	0.000132768
0	78033	50.337852122215	0.000398304
0	78048	50.353022740956	0.000398304
0	78117	50.485156082843	0.000398304
0	78128	50.502226675849	0.000265536
0	78167	50.514585178402	0.001194912
0	78213	50.546845292319	0.000929376
0	78236	50.550235776636	0.00066384
0	78413	50.615790698377	0.001062144
0	78440	50.616592550788	0.001194912
0	78451	50.631860573631	0.000265536
0	78559	50.685775128756	0.001062144
0	78570	50.688346371167	0.000265536
0	78585	50.694059554884	0.000398304
0	78643	50.750821947507	0.00066384
0	78670	50.780063679344	0.000796608
0	78704	50.813110301873	0.000398304
0	78836	50.931223575249	0.001062144
0	78937	50.960381680455	0.000796608
0	79091	51.070597191695	0.001062144
0	79174	51.132711773406	0.000398304
0	79431	51.314473539144	0.000398304
0	79474	51.325362317186	0.00132768
0	79517	51.347838371884	0.000929376
0	79582	51.356370572544	0.000265536
0	79620	51.370471323965	0.00066384
0	79631	51.421179455614	0.000265536
0	79664	51.444540336744	0.000265536
0	79679	51.444984702828	0.000398304
0	79819	51.547999350057	0.001062144
0	79853	51.580130755452	0.00066384
0	79918	51.695393797825	0.000929376
0	79945	51.719163230637	0.000796608
0	80024	51.849310537647	0.000398304
0	80138	51.935184556081	0.000265536
0	80350	52.184696686529	0.000531072
0	80396	52.224972116244	0.001062144
0	80426	52.248376540584	0.000265536
0	80448	52.26650267823	0.000531072
0	80544	52.31522824885	0.000796608
0	80571	52.330303740642	0.000796608
0	80664	52.420912913531	0.001062144
0	80725	52.484133799598	0.000796608
0	80752	52.497119030802	0.000796608
0	80871	52.617548192063	0.000531072
0	80894	52.624761608223	0.00066384
0	80948	52.649749010256	0.000398304
0	80963	52.65019876284	0.001062144
0	81121	52.772912504437	0.00132768
0	81452	52.953324352399	0.00066384
0	81486	52.984204503463	0.000132768
0	81497	53.023607614826	0.000265536
0	81702	53.180708647349	0.000796608
0	81833	53.263853672734	0.000929376
0	81906	53.318627948594	0.001062144
0	81925	53.329664582474	0.000531072
0	81960	53.352468631831	0.001062144
0	82018	53.440073765897	0.000929376
0	82080	53.46329505019	0.001062144
0	82123	53.465283976398	0.00132768
0	82138	53.504022533167	0.000398304
0	82207	53.557087004553	0.001062144
0	82261	53.624313978484	0.001194912
0	82363	53.718357560239	0.000132768
0	82456	53.75833242214	0.001194912
0	82471	53.761328035676	0.000398304
0	82500	53.851317949619	0.000132768
0	82554	53.85466015962	0.000796608
0	82569	53.891540265828	0.000398304
0	82741	53.952570295473	0.000796608
0	82806	53.974901880728	0.001194912
0	82867	53.989254617553	0.000796608
0	82953	54.005209833393	0.000929376
0	83041	54.019186796503	0.000796608
0	83146	54.046700408053	0.00132768
0	83212	54.15493924003	0.001062144
0	83262	54.204509446723	0.000531072
0	83398	54.249075125231	0.000531072
0	83417	54.250489284414	0.000531072
0	83428	54.259528311045	0.000265536
0	83497	54.288492748448	0.000531072
0	83594	54.305364251496	0.000531072
0	83822	54.442832035321	0.001194912
0	83915	54.467146124992	0.001062144
0	83953	54.506697579608	0.000132768
0	83984	54.529152337993	0.000929376
0	83999	54.547460165492	0.000398304
0	84117	54.635070618959	0.000796608
0	84120	54.643218456096	0
0	84236	54.678831261711	0.000929376
0	84267	54.684709063586	0.000929376
0	84381	54.799812948712	0.000265536
0	84396	54.809598522264	0.000398304
0	84434	54.827863775693	0.000398304
0	84643	55.045216521332	0.000398304
0	84708	55.080904119057	0.00066384
0	84734	55.114152635087	0.000132768
0	84757	55.118244493922	0.00066384
0	84791	55.137932389955	0.000265536
0	84837	55.177452459791	0.000132768
0	84915	55.197592171236	0.001194912
0	84950	55.21812375787	0.001062144
0	85015	55.240661541101	0.000929376
0	85089	55.298935665313	0.000796608
0	85143	55.32573784569	0.00066384
0	85146	55.409063128853	0
0	85211	55.460884043041	0.000531072
0	85222	55.469608762463	0.000265536
0	85376	55.544940197719	0.00132768
0	85450	55.600850440114	0.000398304
0	85484	55.629733216569	0.000398304
0	85495	55.644230995795	0
0	85545	55.678668802399	0.00066384
0	85827	55.763366890975	0.00132768
0	85973	55.853190843885	0.001194912
0	86079	55.940083937384	0.00066384
0	86146	55.958473162755	0.001194912
0	86254	56.047565156998	0.00132768
0	86454	56.279651621775	0.00132768
0	86465	56.287548186422	0.000265536
0	86511	56.328582028342	0.000929376
0	86542	56.35732805053	0.000929376
0	86585	56.381897052706	0.00132768
0	86627	56.432122377666	0.000265536
0	86731	56.493268381645	0.001062144
0	86747	56.493787749605	0.00066384
0	86813	56.588766061537	0.001194912
0	86858	56.66712459162	0.00066384
0	87139	56.855124940345	0.000398304
0	87174	56.877012698436	0.001062144
0	87197	56.88782859227	0.00066384
0	87208	56.895823686063	0.000265536
0	87316	56.953310011885	0.001062144
0	87393	56.990863070263	0.001062144
0	87416	56.992407098169	0.00066384
0	87598	57.105612544156	0.00066384
0	87873	57.236058012711	0.000531072
0	87904	57.23777402123	0.000929376
0	87931	57.265827175216	0.000796608
0	88204	57.479238550771	0.001062144
0	88227	57.486204880566	0.00066384
0	88242	57.497248247767	0.000398304
0	88315	57.567077132303	0.000796608
0	88365	57.598767600772	0.000796608
0	88369	57.598883033726	0.000796608
0	88384	57.611027340411	0.000398304
0	88528	57.721545596429	0.001194912
0	88791	57.83011144056	0.000929376
0	89145	57.901200869651	0.00066384
0	89184	57.905466684573	0.001194912
0	89211	57.924615319047	0.000796608
0	89222	57.94255565198	0.000265536
0	89313	58.024956722924	0.000265536
0	89382	58.045094971133	0.001062144
0	89478	58.08453904104	0.000398304
0	89770	58.273111818992	0.000265536
0	89905	58.335567481901	0.000796608
0	89944	58.455583799599	0.001194912
0	90140	58.540703801952	0.000929376
0	90194	58.60567730216	0.00132768
0	90216	58.626586041616	0.000132768
0	90223	58.651636179523	0.000132768
0	90273	58.661948957795	0.000265536
0	90353	58.737786917599	0.000265536
0	90411	58.777080004771	0.00066384
0	90422	58.78308886998	0.000265536
0	90445	58.789130114574	0.00066384
0	90468	58.794769520477	0.00066384
0	90503	58.80723093888	0.001062144
0	90551	58.872264756135	0.000132768
0	90652	58.953316657219	0.00066384
0	90717	59.033379228393	0.000531072
0	90735	59.07342559869	0.000398304
0	90869	59.15394585988	0.000398304
0	90900	59.16138381772	0.000929376
0	90915	59.182720072805	0.000398304
0	91018	59.218783998847	0.00066384
0	91259	59.425877188758	0.000132768
0	91438	59.465823829989	0.001062144
0	91473	59.534135060009	0.001062144
0	91492	59.583107321112	0.000531072
0	91534	59.598787487015	0.000531072
0	91545	59.62624726385	0.000265536
0	91564	59.629806614228	0.000531072
0	91646	59.671606000848	0.001062144
0	91941	59.71578911631	0.00066384
0	91997	59.812329665044	0.000265536
0	92050	59.854958531136	0.000132768
0	92174	59.916992312276	0.00132768
0	92197	59.960670565466	0.00066384
0	92301	60.025711475364	0.001062144
0	92405	60.068044097729	0.00066384
0	92416	60.070634760957	0.000265536
0	92526	60.153430361792	0.000132768
0	92559	60.163188740309	0.000132768
0	92671	60.227881792435	0.000398304
0	92808	60.364536203962	0.000132768
0	92846	60.383349154072	0.000796608
0	92912	60.395864742458	0.000398304
0	93217	60.680599922238	0.000796608
0	93232	60.684973946348	0.000398304
0	93420	60.86443737395	0.000796608
0	93447	60.8786612511	0.000796608
0	93474	60.890180364134	0.000796608
0	93512	60.939180520094	0.000398304
0	93527	60.960691946782	0.000398304
0	93619	61.071148580081	0.000531072
0	93642	61.107984949886	0.00066384
0	93681	61.121480124504	0.00066384
0	93962	61.189999342186	0.00066384
0	93985	61.195515334276	0.00066384
0	94151	61.232628586672	0.001062144
0	94349	61.304530455659	0.00132768
0	94396	61.3230399046	0.000531072
0	94512	61.336373353782	0.001062144
0	94638	61.410191725982	0.000531072
0	94758	61.462425765767	0.00066384
0	94835	61.56444691383	0.000929376
0	94858	61.571284331548	0.00066384
0	94885	61.610847915178	0.000796608
0	94900	61.6129366814	0.000398304
0	95078	61.685315316252	0.001062144
0	95124	61.715165787413	0.000796608
0	95205	61.79040012406	0.000531072
0	95232	61.809576744486	0.000796608
0	95630	62.041899711243	0.000929376
0	95649	62.04372409095	0.000531072
0	95715	62.111993234075	0.001062144
0	95734	62.135746800506	0.000531072
0	95794	62.178340547185	0.000398304
0	95900	62.282129746539	0.000132768
0	95950	62.303786348814	0.000265536
0	96012	62.33576507308	0.000398304
0	96023	62.383332300043	0.000265536
0	96108	62.437187736901	0.001194912
0	96204	62.485628136616	0.000929376
0	96234	62.496193790269	0.000132768
0	96319	62.548318258348	0.000398304
0	96381	62.568169169051	0.001062144
0	96399	62.592098781378	0
0	96572	62.665830596408	0.000796608
0	96606	62.693038432465	0.000398304
0	96625	62.727117506534	0.000531072
0	96786	62.749770022578	0.001062144
0	96789	62.749820110032	0.000796608
0	96796	62.756463633836	0.000132768
0	96958	62.838145054963	0.001062144
0	96969	62.844626993165	0.000265536
0	97147	62.96014949953	0.00066384
0	97170	62.962140335297	0.00066384
0	97177	62.963618120372	0.000132768
0	97216	62.967211842529	0.001194912
0	97296	63.013113467453	0.000531072
0	97382	63.037884454178	0.001194912
0	97519	63.087197665908	0.000265536
0	97616	63.119931595244	0.001194912
0	97650	63.155071018209	0.000265536
0	97719	63.171647073075	0.001194912
0	97827	63.206759180117	0.000796608
0	97942	63.269392754132	0.000265536
0	97969	63.312682788009	0.000531072
0	97996	63.313577624754	0.001062144
0	98042	63.32668628071	0.000531072
0	98072	63.37223122507	0.00066384
0	98357	63.518897544382	0.000265536
0	98411	63.561905558258	0.000531072
0	98535	63.618884268224	0.00132768
0	98566	63.624232777633	0.000929376
0	98690	63.658013082059	0.001062144
0	98709	63.661711247154	0.000531072
0	98728	63.663888967894	0.000531072
0	98759	63.729663926358	0.000929376
0	98844	63.757112965674	0.000929376
0	98956	63.80026854273	0.000531072
0	99324	63.95758818083	0.00066384
0	99350	63.981094367241	0.000132768
0	99436	63.996643849076	0.001194912
0	99648	64.066833990476	0.000132768
0	99745	64.105829767014	0.000531072
0	99771	64.109095970105	0
0	99820	64.169971602715	0.000398304
0	99858	64.207459525002	0.000265536
0	99897	64.231300740529	0.001194912
0	99951	64.292573593637	0.001062144
0	100048	64.34489346891	0.000929376
0	100067	64.357220917532	0.000531072
0	100094	64.365340683936	0.000796608
0	100117	64.371115684751	0.00066384
0	100248	64.409758642365	0.000796608
0	100271	64.421814356046	0.00066384
0	100391	64.495579030763	0.000531072
0	100722	64.597723715858	0.00066384
0	100757	64.629958079872	0.001062144
0	100860	64.695220792231	0.000132768
0	101034	64.807343858466	0.00066384
0	101068	64.832036269709	0.000398304
0	101284	65.002463422481	0.001062144
0	101299	65.028961382945	0.000398304
0	101345	65.05267024785	0.00066384
0	101403	65.083343097949	0.000796608
0	101414	65.117335537915	0.000265536
0	101468	65.157669225942	0.000796608
0	101616	65.19451672176	0.00132768
0	101701	65.234642331039	0.000398304
0	101779	65.259869882934	0.001194912
0	101790	65.261036681264	0.000265536
0	101867	65.3509895649	0.000398304
0	101944	65.381462581683	0.000929376
0	101987	65.416165339141	0.00132768
0	102006	65.428993446249	0.000531072
0	102114	65.467835151164	0.001062144
0	102122	65.468088721684	0.001194912
0	102141	65.474981778727	0.000531072
0	102190	65.489380402512	0.000265536
0	102248	65.512019891607	0.001194912
0	102270	65.527631838671	0.000398304
0	102313	65.540831847771	0.00132768
0	102371	65.571502690324	0.001062144
0	102429	65.580825461379	0.000796608
0	102514	65.593348920662	0.000531072
0	102525	65.593708997112	0.000398304
0	102630	65.67648327481	0.001194912
0	102786	65.827961886409	0.000929376
0	102924	65.90129163912	0.000796608
0	103006	65.927557687277	0.001062144
0	103230	66.0718541017	0.000398304
0	103559	66.220734321287	0.000929376
0	103646	66.308423471732	0.001062144
0	103709	66.350064711606	0.00132768
0	103759	66.39270459169	0.00066384
0	103798	66.41724692728	0.001194912
0	103863	66.463216929967	0.001062144
0	103955	66.554759614219	0.000398304
0	104101	66.652581004984	0.000265536
0	104191	66.695095241193	0.001062144
0	104225	66.735862377204	0.000531072
0	104380	66.801694313361	0.000531072
0	104411	66.821085378103	0.000929376
0	104434	66.834997956371	0.00066384
0	104473	66.842550127567	0.001194912
0	104589	67.022420271366	0.001062144
0	104608	67.023623893571	0.000531072
0	104697	67.042548533484	0
0	104755	67.068168499586	0.000531072
0	104789	67.103167204936	0.000398304
0	104916	67.169733566619	0.000398304
0	104985	67.217229389225	0.000265536
0	105186	67.291863646053	0.000531072
0	105244	67.304602490743	0.00066384
0	105302	67.312572181707	0.000796608
0	105352	67.341892967555	0.000796608
0	105379	67.351802245915	0.000796608
0	105452	67.394536332947	0.000531072
0	105463	67.404046234407	0.000265536
0	105493	67.453658281684	0.000398304
0	105602	67.509445736479	0.000132768
0	105645	67.515007924828	0.000929376
0	105703	67.523295821525	0.00132768
0	105738	67.535490756243	0.001062144
0	105757	67.538196822304	0.000531072
0	105776	67.58013187232	0.000531072
0	105865	67.598143612978	0.00066384
0	105900	67.604826180261	0.001062144
0	106016	67.673279475336	0.00066384
0	106058	67.720302150891	0.000796608
0	106148	67.763441657357	0.00132768
0	106279	67.914288666241	0.000265536
0	106742	68.056184424537	0.00066384
0	106757	68.06083441348	0.000398304
0	106764	68.081801436479	0.000132768
0	106826	68.108605538239	0.001062144
0	106865	68.149194451649	0.001194912
0	106980	68.216019877599	0.000265536
0	107068	68.301806491937	0.000265536
0	107303	68.391629639361	0.001062144
0	107450	68.48696970311	0.000796608
0	107491	68.540401805192	0.001062144
0	107694	68.588992091127	0.00132768
0	107744	68.635427689683	0.000796608
0	107771	68.648948109136	0.000796608
0	107821	68.676088133725	0.000796608
0	107888	68.770569836091	0.000531072
0	107983	68.957095027787	0.000531072
0	108037	68.9866181054	0.000398304
0	108153	69.09152574269	0.000398304
0	108172	69.127004044326	0.000531072
0	108187	69.138264394743	0.000398304
0	108260	69.204418119906	0.000398304
0	108425	69.290926714574	0.001194912
0	108451	69.345512363063	0.000265536
0	108508	69.406698226771	0.00066384
0	108728	69.539057089262	0.00066384
0	108754	69.577544826584	0.000132768
0	108780	69.599993048798	0.000398304
0	108795	69.636850508148	0.000398304
0	108834	69.658332442996	0.001194912
0	108853	69.672132778525	0.000531072
0	108965	69.706108232895	0.00066384
0	109034	69.764579691111	0.000265536
0	109049	69.840382314531	0.000398304
0	109133	69.943256485578	0.001194912
0	109199	69.956015632723	0.000929376
0	109230	69.965309202952	0.000929376
0	109347	70.007846587639	0.001194912
0	109366	70.065664328839	0.000531072
0	109554	70.205810851097	0.00066384
0	109581	70.225155860125	0.000796608
0	109677	70.262993551914	0.00066384
0	109704	70.272038062361	0.000796608
0	109781	70.34684657778	0.000531072
0	109812	70.378602542098	0.000929376
0	109839	70.387364250483	0.000796608
0	109865	70.481252940661	0.000132768
0	109952	70.530498551908	0.000531072
0	109998	70.543650210155	0.001062144
0	110048	70.56328329883	0.000929376
0	110097	70.603878566482	0.000132768
0	110197	70.664134819839	0.000531072
0	110208	70.673111104374	0.000265536
0	110277	70.710223167233	0.000929376
0	110386	70.780097929969	0.00132768
0	110442	70.860500283131	0.000398304
0	110610	70.971288520745	0.00066384
0	110711	71.056062976896	0.000398304
0	110746	71.058555504724	0.001062144
0	110892	71.146434437644	0.000265536
0	110954	71.162076024246	0.001194912
0	111088	71.24153004701	0
0	111138	71.262588994456	0.000796608
0	111149	71.27510499423	0.000265536
0	111175	71.292478523698	0.000265536
0	111217	71.323575081337	0.000132768
0	111342	71.476986632592	0.000398304
0	111369	71.497824883226	0.000796608
0	111625	71.657692258822	0.000531072
0	111674	71.72378914334	0.000531072
0	111724	71.756850198847	0.000531072
0	111828	71.892848544248	0.000398304
0	111847	71.921107333422	0.000531072
0	111858	71.930554477976	0.000265536
0	111935	71.965742337257	0.000398304
0	112016	72.033855024167	0.000929376
0	112035	72.038859461382	0.000531072
0	112103	72.135443216244	0.000265536
0	112156	72.205026370805	0.000398304
0	112233	72.261841098332	0.000265536
0	112244	72.277039492123	0.000265536
0	112277	72.309130289685	0.000265536
0	112342	72.337144705831	0.000398304
0	112630	72.49076689481	0.000132768
0	112649	72.4970149334	0.000531072
0	112764	72.570473778033	0.000265536
0	112767	72.601232750141	0
0	112861	72.650016577816	0.001062144
0	112935	72.677751151018	0.001194912
0	113149	72.831559110416	0.000398304
0	113176	72.855994210391	0.000796608
0	113199	72.878104218636	0.00066384
0	113292	72.913908996283	0.000531072
0	113350	72.970689896857	0.001062144
0	113458	73.023979759192	0.00066384
0	113469	73.044317641788	0.000265536
0	113488	73.080249426809	0.000531072
0	113665	73.147825484317	0.000132768
0	113816	73.224727552945	0.001062144
0	113839	73.239652350481	0.00066384
0	113861	73.353986677118	0
0	113880	73.355412768666	0.000531072
0	113977	73.416020431757	0.001194912
0	113996	73.436474501523	0.000531072
0	114033	73.498595360777	0.000531072
0	114130	73.598459427593	0.001062144
0	114153	73.616850591602	0.00066384
0	114223	73.770620663476	0.001194912
0	114296	73.815644768687	0.000265536
0	114423	73.877571674993	0.00066384
0	114454	73.881398399229	0.000929376
0	114465	73.885586060064	0.000265536
0	114678	74.026364553446	0.00066384
0	114721	74.035807401757	0.00132768
0	114825	74.06965005275	0.000398304
0	114852	74.088051705223	0.000796608
0	114863	74.098536986538	0.000265536
0	114983	74.1384690122	0.000796608
0	115275	74.326971252458	0.000796608
0	115392	74.47210516797	0.000265536
0	115429	74.483804205664	0
0	115460	74.485086256686	0.000929376
0	115479	74.503065883863	0.000531072
0	115482	74.516817787617	0
0	115497	74.523840590853	0.000398304
0	115571	74.528336374618	0.000398304
0	115582	74.553016169205	0.000265536
0	115714	74.619881527454	0.000265536
0	115830	74.690509805868	0.000796608
0	115856	74.722496485211	0.000132768
0	115988	74.812350350567	0.000132768
0	116011	74.857606632609	0.00066384
0	116092	74.902575190696	0.000929376
0	116158	74.955909011151	0.001194912
0	116189	74.968438443578	0.000929376
0	116386	75.104224596076	0.000531072
0	116595	75.268273350431	0.00066384
0	116614	75.27119453651	0.000531072
0	116660	75.298657871217	0.00066384
0	116804	75.349089898088	0.000929376
0	116950	75.41364010504	0.00066384
0	117042	75.470144376396	0.000398304
0	117076	75.486061602015	0.000265536
0	117099	75.487450101414	0.00066384
0	117157	75.570602477232	0.00066384
0	117210	75.610071478452	0.000265536
0	117229	75.617624542618	0.000531072
0	117375	75.699689112092	0.000796608
0	117413	75.732474701911	0.00066384
0	117436	75.736122145188	0.00066384
0	117451	75.75553018299	0.000398304
0	117574	75.889428823813	0.001194912
0	117720	76.005640800517	0.000132768
0	117813	76.039243992143	0.001062144
0	117972	76.126492769288	0.000398304
0	118034	76.162833143599	0.000796608
0	118041	76.21432716967	0.000132768
0	118068	76.22381877357	0.000796608
0	118149	76.274486281688	0.001194912
0	118217	76.356963232306	0
0	118244	76.391716271702	0.000796608
0	118263	76.4151091223	0.000531072
0	118384	76.467891603053	0.00132768
0	118399	76.477566958805	0.000398304
0	118461	76.485484038996	0.000531072
0	118516	76.491943054266	0.000929376
0	118531	76.492348979466	0.001194912
0	118561	76.494754029476	0.000531072
0	118603	76.509191713038	0.000796608
0	118626	76.517250324604	0.00066384
0	118793	76.56567544001	0.000929376
0	118800	76.594627418421	0.000132768
0	118807	76.615787416608	0.000132768
0	118928	76.654128654106	0.000929376
0	119048	76.69102435279	0.000265536
0	119087	76.704678923	0.001194912
0	119094	76.707156030883	0.000132768
0	119139	76.737393183354	0.000132768
0	119373	76.823082887051	0.000398304
0	119415	76.858113442691	0.000265536
0	119496	76.88522604192	0.000531072
0	119538	76.9483879171	0.000531072
0	119592	76.977024208655	0.00066384
0	119659	77.046444412074	0.000265536
0	119965	77.285380332129	0.000531072
0	119996	77.301047374343	0.000929376
0	120274	77.426699599208	0.000929376
0	120344	77.428553536865	0.000796608
0	120375	77.43027097857	0.000929376
0	120425	77.452239282116	0.00066384
0	120463	77.466681162267	0.000531072
0	120482	77.539334591834	0.000531072
0	120493	77.544219075315	0.000265536
0	120500	77.546989258878	0.000132768
0	120607	77.580831517836	0.000132768
0	121027	77.779842653771	0.000929376
0	121155	77.819857565579	0.00066384
0	121186	77.821370227746	0.000929376
0	121197	77.855013715577	0.000265536
0	121251	77.894353109629	0.001194912
0	121270	77.927474171133	0.000531072
0	121509	78.140154971553	0.00066384
0	121528	78.144693073135	0.000531072
0	121539	78.149509969785	0.000265536
0	121762	78.232282961116	0.000929376
0	121846	78.276371396874	0.000398304
0	121865	78.281928506549	0.000531072
0	121880	78.297415447116	0.000398304
0	121899	78.30860727731	0.000531072
0	121981	78.330283855085	0.000531072
0	122046	78.349981243583	0.000265536
0	122065	78.355848908257	0.000531072
0	122084	78.36964687649	0.000531072
0	122172	78.456226177046	0.000796608
0	122233	78.536722931992	0.000265536
0	122291	78.571020688528	0.000132768
0	122372	78.671511742276	0.000531072
0	122414	78.686000759418	0.000531072
0	122455	78.812087817891	0.000398304
0	122571	78.92120278727	0.000929376
0	122598	78.922632828129	0.000796608
0	122722	78.964184224228	0.000929376
0	122736	78.969383785137	0.000132768
0	122747	78.971397555782	0.000265536
0	122840	79.014918258057	0.00132768
0	122967	79.048668354856	0.000531072
0	123010	79.065452240559	0.000398304
0	123101	79.115649929579	0.000398304
0	123178	79.186540432997	0.000796608
0	123251	79.227467426964	0.000531072
0	123281	79.238987812997	0.000398304
0	123350	79.263421249814	0.000398304
0	123353	79.266881805217	0
0	123413	79.328251269368	0.000132768
0	123428	79.337113542558	0.000398304
0	123451	79.355628599366	0.00066384
0	123525	79.394702727432	0.001194912
0	123544	79.411991775777	0.000531072
0	123713	79.492989621317	0.000531072
0	123832	79.528794770512	0.000796608
0	123917	79.548882675829	0.00066384
0	123974	79.557156963858	0.000796608
0	124058	79.626091643667	0.000398304
0	124081	79.640991120762	0.00066384
0	124123	79.670084661742	0.000531072
0	124208	79.719269780566	0.000929376
0	124238	79.747260833193	0.000265536
0	124249	79.77311090617	0.000265536
0	124340	79.906898490857	0.000398304
0	124503	79.996096697068	0.001062144
0	124546	80.023843383725	0.00132768
0	124650	80.049206810599	0.000531072
0	124782	80.125169808634	0.000531072
0	124914	80.164217173915	0.001062144
0	125021	80.259573972247	0.000398304
0	125067	80.301025455573	0.001062144
0	125147	80.409801007814	0.000531072
0	125182	80.416287305497	0.001062144
0	125290	80.498725926881	0.000796608
0	125305	80.522382797964	0.000398304
0	125430	80.539093267598	0.001194912
0	125461	80.540945647479	0.000929376
0	125647	80.636431841119	0.000265536
0	125822	80.758422626814	0.001062144
0	125956	80.825972508278	0.000265536
0	126188	80.983833532966	0.000929376
0	126231	80.994236887675	0.00132768
0	126380	81.071422287257	0.000531072
0	126415	81.084559875686	0.001062144
0	126519	81.125350605395	0.000531072
0	126631	81.174181873747	0.000265536
0	126905	81.270988748542	0.000929376
0	126977	81.336260058216	0.000132768
0	127046	81.345708969887	0.000398304
0	127061	81.35576230927	0.000398304
0	127450	81.643319773066	0.001194912
0	127492	81.673404128316	0.000132768
0	127576	81.699557008555	0.000531072
0	127718	81.792314889744	0.000398304
0	127753	81.79483880532	0.001062144
0	127834	81.852549282382	0.001194912
0	127896	81.863729446633	0.001062144
0	127919	81.878530133288	0.00066384
0	127953	81.880857003073	0.000398304
0	128015	81.921639951925	0.000796608
0	128048	81.970387438296	0
0	128094	81.98937776395	0.000796608
0	128199	82.04748499724	0.00066384
0	128356	82.129276355318	0.000132768
0	128456	82.178230881433	0.001062144
0	128538	82.206632417841	0.000796608
0	128577	82.211698811446	0.001194912
0	128650	82.273230529675	0.000398304
0	128676	82.346888125024	0.000132768
0	128719	82.351082195577	0.00132768
0	128781	82.360680742527	0.000929376
0	128816	82.363452926717	0.001062144
0	128905	82.435512461594	0.001194912
0	128989	82.497837548878	0.000398304
0	129327	82.569750639985	0.000929376
0	129346	82.584568704418	0.000398304
0	129521	82.669426844765	0.001062144
0	129544	82.670187848498	0.00132768
0	129690	82.73119898787	0.00066384
0	129808	82.910692936649	0.000398304
0	129877	83.029963167896	0.000531072
0	129900	83.055026761127	0.00066384
0	130200	83.190491757369	0.000531072
0	130223	83.21293188481	0.00066384
0	130238	83.222544560932	0.000398304
0	130325	83.320317467563	0.000265536
0	130348	83.325257154422	0.00066384
0	130390	83.356830966289	0.000398304
0	130405	83.388178273484	0.000398304
0	130450	83.411927202978	0.000398304
0	130489	83.421018089985	0.001194912
0	130500	83.433511121826	0.000265536
0	130639	83.491778263915	0.001194912
0	130654	83.50420170885	0.000398304
0	130669	83.522044214306	0.000398304
0	130812	83.613619118119	0
0	130909	83.626970618013	0.000929376
0	130952	83.646260071887	0.00132768
0	130959	83.669002160418	0.000132768
0	131095	83.766505598847	0.000796608
0	131114	83.772742907793	0.000531072
0	131141	83.779939973095	0.000796608
0	131256	83.912447184943	0.000796608
0	131291	83.927049871695	0.001062144
0	131363	83.977800272454	0.000265536
0	131397	83.992864693387	0.000265536
0	131404	84.010723093633	0.000132768
0	131605	84.177627057889	0.000796608
0	131647	84.195206099735	0.000796608
0	131731	84.238315634987	0.00066384
0	131856	84.305389051385	0.00066384
0	132081	84.535637937668	0.000531072
0	132147	84.574992233338	0.00066384
0	132205	84.581663830193	0.000265536
0	132401	84.664891435421	0.00066384
0	132424	84.666043758449	0.00066384
0	132486	84.667978098865	0.00066384
0	132608	84.737090290377	0.000398304
0	132650	84.752372013142	0.000265536
0	132762	84.801258126008	0.000929376
0	132847	84.829470152381	0.00066384
0	132862	84.846556396224	0.000398304
0	132900	84.864846104812	0.000796608
0	133079	84.910881066211	0.001194912
0	133109	84.921753329308	0.000531072
0	133170	84.981453899563	0.000265536
0	133243	85.000665850395	0.000929376
0	133301	85.023149827428	0.000398304
0	133331	85.027372236337	0.000132768
0	133419	85.067409063858	0.001062144
0	133539	85.127121692107	0.000796608
0	133558	85.169142167632	0.000531072
0	133569	85.171478681814	0.000132768
0	133607	85.174233441633	0.000398304
0	133645	85.188181914988	0
0	133948	85.313744371276	0.000132768
0	134010	85.403056848117	0.00066384
0	134041	85.410303022945	0.000929376
0	134048	85.411874854474	0.000132768
0	134163	85.470489062773	0.000531072
0	134255	85.524475357786	0.000398304
0	134274	85.550469208788	0.000531072
0	134297	85.569102578954	0.00066384
0	134381	85.617987081427	0.00066384
0	134434	85.695467111004	0.000398304
0	134465	85.699313679174	0.000929376
0	134554	85.721762491562	0.000796608
0	134588	85.799361576456	0.000398304
0	134611	85.824823643805	0.00066384
0	134646	85.828089626508	0.001062144
0	134688	85.843460554613	0.00066384
0	134718	85.878435566942	0.000132768
0	134745	85.880195344602	0.000796608
0	134918	86.014610020177	0.00066384
0	134949	86.023557460786	0.000929376
0	134980	86.047361954831	0.000929376
0	135272	86.213539886409	0.000265536
0	135295	86.224752744369	0.00066384
0	135353	86.237674228925	0.000796608
0	135445	86.254403165888	0.000132768
0	135464	86.264758562185	0.000531072
0	135564	86.380729594068	0.000531072
0	135641	86.418771684606	0.00066384
0	135663	86.435178835504	0.000265536
0	135690	86.442084586109	0.000796608
0	135748	86.465104327802	0.000398304
0	135872	86.522340873171	0.000929376
0	135887	86.532418040306	0.000398304
0	135969	86.586034747857	0.000132768
0	136165	86.681153660482	0.000796608
0	136184	86.697505631945	0.000531072
0	136215	86.713003233838	0.000531072
0	136248	86.731583002047	0.000132768
0	136516	86.928453524229	0.000796608
0	136550	86.929476911242	0.001194912
0	136604	86.945211706117	0.001194912
0	136619	86.952468853028	0.000398304
0	136688	87.00439397269	0.000398304
0	136966	87.202472747978	0.000398304
0	136977	87.220955347284	0.000265536
0	136999	87.272659319023	0.000265536
0	137076	87.311849304285	0.000132768
0	137148	87.385195577068	0.000796608
0	137292	87.418867415911	0.00066384
0	137299	87.419020645601	0.000929376
0	137477	87.451112229246	0.000265536
0	137504	87.47711105394	0.000796608
0	137773	87.678135373867	0.000265536
0	138002	87.815851101526	0.000132768
0	138029	87.818928147716	0.000796608
0	138070	87.854823405289	0.000398304
0	138132	87.875636712793	0.00066384
0	138146	87.881783063924	0.000132768
0	138228	87.893669448105	0.000531072
0	138262	87.931128124855	0.000796608
0	138289	87.940509523304	0.000531072
0	138300	87.94077772669	0.000531072
0	138335	87.983348003602	0.001062144
0	138424	88.004375803508	0.000929376
0	138579	88.10172370669	0.00132768
0	138610	88.108181156426	0.000929376
0	138691	88.145313092503	0.000531072
0	138729	88.156491893924	0.00066384
0	138768	88.165889167826	0.001194912
0	138869	88.218344912003	0.000531072
0	138900	88.251327350206	0.000929376
0	138946	88.310434617089	0.000531072
0	138953	88.333159483617	0.000132768
0	139010	88.389232925084	0.000531072
0	139083	88.395062312753	0.000531072
0	139129	88.474800248968	0.000132768
0	139152	88.502369603567	0.00066384
0	139342	88.624789018624	0.001194912
0	139400	88.63706082035	0.000796608
0	139458	88.676199464141	0.000398304
0	139485	88.688547626497	0.000796608
0	139581	88.753140595528	0.000398304
0	139647	88.806438775076	0.000132768
0	139693	88.892645213572	0.000796608
0	139716	88.900673568821	0.00066384
0	139743	88.946415079284	0.000796608
0	139955	89.047094733092	0.000796608
0	139978	89.072768867303	0.00066384
0	140115	89.194746494349	0.000398304
0	140165	89.200442508135	0.00066384
0	140402	89.232516257483	0.000929376
0	140467	89.278113727197	0.000265536
0	140517	89.2950117175	0.000398304
0	140567	89.309170967275	0.000132768
0	140706	89.36844001299	0.000929376
0	140802	89.413504016215	0.000398304
0	140913	89.478519451084	0.00066384
0	140940	89.481637859069	0.000796608
0	140974	89.499756007734	0.00066384
0	141136	89.565203049036	0.000398304
0	141266	89.69098325966	0.000398304
0	141324	89.699086970818	0.000398304
0	141343	89.712704759383	0.000531072
0	141366	89.735117791286	0.00066384
0	141434	89.810389408292	0.000265536
0	141543	89.882370954546	0.00066384
0	141585	89.974082488927	0.00066384
0	141755	90.030020417399	0.000531072
0	141782	90.030910125776	0.001062144
0	142033	90.209539608268	0.00066384
0	142091	90.212816421784	0.00132768
0	142157	90.234947675457	0.000796608
0	142238	90.267322209472	0.000796608
0	142258	90.267962318275	0.00132768
0	142335	90.283832354069	0.001062144
0	142342	90.310779750495	0.000132768
0	142411	90.335132859062	0.00066384
0	142580	90.423514054156	0.000132768
0	142621	90.472310779328	0.000265536
0	142640	90.474155663516	0.000531072
0	142725	90.537841651709	0.001062144
0	142748	90.546321447997	0.00066384
0	142802	90.618571993944	0.001062144
0	142855	90.685653611219	0
0	143028	90.795241505031	0.000531072
0	143136	90.889609149523	0.001062144
0	143251	90.97587219103	0.000265536
0	143320	91.009317031234	0.000531072
0	143355	91.012407952053	0.001062144
0	143386	91.018025589994	0.000929376
0	143440	91.036722497394	0.000929376
0	143667	91.118416857403	0.000796608
0	143744	91.150494025726	0.001194912
0	143831	91.224306826076	0.000531072
0	144085	91.374480349564	0.000398304
0	144142	91.430378405705	0.000531072
0	144230	91.474119773948	0.00066384
0	144245	91.505046312685	0.000398304
0	144315	91.539486822592	0.00132768
0	144345	91.553094005069	0.000398304
0	144380	91.554968197119	0.001062144
0	144456	91.679574809753	0.000531072
0	144598	91.752814987181	0.000398304
0	144660	91.781970212098	0.001194912
0	144714	91.842696470198	0.000265536
0	144799	91.87030289598	0.000265536
0	144814	91.884625644229	0.000398304
0	144825	91.908310966428	0.000265536
0	144840	91.924093843644	0.000398304
0	144871	91.958705154705	0.000929376
0	144971	92.009264494377	0.001062144
0	145017	92.014318249159	0.000265536
0	145060	92.020763946449	0.00132768
0	145175	92.047826382398	0.001062144
0	145179	92.047934465917	0.000796608
0	145251	92.077876219656	0.001062144
0	145270	92.103680960366	0.000531072
0	145327	92.119887751754	0.001194912
0	145350	92.130833651835	0.00066384
0	145487	92.229411775364	0.000531072
0	145529	92.256397906183	0.000265536
0	145552	92.259805080801	0.00066384
0	145625	92.355129609816	0.000796608
0	145648	92.364645859484	0.00066384
0	145685	92.380775598589	0.000265536
0	145805	92.409881181633	0.00132768
0	145909	92.546916935058	0.001062144
0	145998	92.600049172574	0.00066384
0	146036	92.608892064331	0.000796608
0	146047	92.610816424962	0.000265536
0	146070	92.636653340235	0.00066384
0	146275	92.740119213664	0.000398304
0	146352	92.802264287492	0.000796608
0	146444	92.891820889272	0.001062144
0	146463	92.908093349633	0.000531072
0	146485	92.982889736996	0.000132768
0	146542	92.997389184508	0.000132768
0	146553	92.998140050472	0.000265536
0	146634	93.079896583021	0.000531072
0	146744	93.1946659346	0.000796608
0	146798	93.251598669151	0.001194912
0	146829	93.286921649555	0.000929376
0	146887	93.365182837593	0.00066384
0	146914	93.408920263997	0.000796608
0	146941	93.4175030597	0.000796608
0	147003	93.459324667473	0.000531072
0	147030	93.468375397361	0.000796608
0	147169	93.507760781118	0.001062144
0	147235	93.539153519099	0.001062144
0	147301	93.605409011237	0.000796608
0	147367	93.623540384233	0.001194912
0	147398	93.647764961762	0.000929376
0	147464	93.699216238574	0.000929376
0	147510	93.753512408212	0.00066384
0	147623	93.810521039926	0.00066384
0	147645	93.834765151245	0.000398304
0	147691	93.876238778264	0.000796608
0	147706	93.898972006452	0.000398304
0	147764	93.928648485033	0.000796608
0	147799	93.930693334773	0.001062144
0	147922	94.079828765268	0.000929376
0	147933	94.098250179477	0.000265536
0	148059	94.181419288608	0.00066384
0	148086	94.203858744112	0.000796608
0	148097	94.20961471548	0.000265536
0	148218	94.249550128026	0.001062144
0	148232	94.279404474339	0.000265536
0	148251	94.285326522543	0.000531072
0	148308	94.373338945427	0.000398304
0	148421	94.413293667902	0.000796608
0	148471	94.44035704728	0.001194912
0	148549	94.49692752244	0.001062144
0	148896	94.603890753665	0.000265536
0	149006	94.65856233751	0.001062144
0	149110	94.825343012092	0.00066384
0	149188	94.848030324999	0.001194912
0	149231	94.871576586588	0.00132768
0	149336	94.955810717932	0.001194912
0	149484	94.998373725571	0.000398304
0	149523	95.000713614381	0.001194912
0	149592	95.012869085084	0.000796608
0	149738	95.098769636884	0.000265536
0	149842	95.159149325773	0.000796608
0	149861	95.180023751162	0.000531072
0	150063	95.259567189264	0.00066384
0	150265	95.294893339078	0.001194912
0	150300	95.297745939752	0.001062144
0	150331	95.308991526091	0.000929376
0	150354	95.353879215178	0.00066384
0	150402	95.389767698555	0.000132768
0	150433	95.397286294004	0.000531072
0	150471	95.456288051823	0.00066384
0	150570	95.536057205313	0.001194912
0	150577	95.539248919436	0.000132768
0	150612	95.542396423787	0.001062144
0	150639	95.543643390151	0.000796608
0	150650	95.560167277807	0.000265536
0	150665	95.56407900156	0.000398304
0	150841	95.650858399991	0.000796608
0	150872	95.660599451079	0.000929376
0	151057	95.793357309857	0.000265536
0	151092	95.794971010087	0.001062144
0	151242	95.923285126739	0.000132768
0	151277	95.927138833199	0.001062144
0	151350	95.958921962048	0.000796608
0	151377	95.961430048665	0.000796608
0	151396	95.965597237201	0.000531072
0	151435	95.978974065187	0.001194912
0	151458	95.988388772818	0.00066384
0	151527	96.011897439456	0.000265536
0	151554	96.028437115773	0.000796608
0	151615	96.093562417262	0.000531072
0	151831	96.175056982029	0.001194912
0	151850	96.175736946132	0.000531072
0	151985	96.241024282684	0.000398304
0	152004	96.244672167613	0.000531072
0	152084	96.322104420364	0.000265536
0	152169	96.359894287912	0.00066384
0	152367	96.560202058811	0.000265536
0	152397	96.640461697339	0.000796608
0	152455	96.669753006267	0.001062144
0	152470	96.686798933931	0.000398304
0	152582	96.723264065229	0.000398304
0	152609	96.727242281375	0.000796608
0	152628	96.728226450115	0.000531072
0	152651	96.736687058852	0.00066384
0	152666	96.823119498403	0.000398304
0	152805	96.916800261313	0.000398304
0	152832	96.930894723929	0.000796608
0	152863	96.937900939447	0.000929376
0	152905	96.966486949287	0.000265536
0	153009	97.066003770389	0.000531072
0	153063	97.07586552878	0.001194912
0	153156	97.086812359022	0.000796608
0	153190	97.093101566182	0.00066384
0	153318	97.150092690211	0.001194912
0	153383	97.176802560117	0.00066384
0	153386	97.189269839732	0
0	153618	97.325613907335	0.00066384
0	153696	97.361621485139	0.000796608
0	153761	97.403329550032	0.000796608
0	153776	97.412289102685	0.000398304
0	153834	97.518899705601	0.001062144
0	153849	97.535984292883	0.000398304
0	154069	97.681315790615	0.000929376
0	154084	97.737433996516	0.000398304
0	154145	97.788198329828	0.001062144
0	154205	97.853876313561	0.000398304
0	154294	97.8783763942	0.000929376
0	154363	97.920030459831	0.000398304
0	154390	97.929314662625	0.000796608
0	154597	98.062801454581	0.000929376
0	154667	98.13748669152	0.000531072
0	154729	98.176354133195	0.000796608
0	154744	98.196964581179	0.000398304
0	155006	98.369956586893	0.000398304
0	155037	98.429437556204	0.000929376
0	155059	98.452718213338	0.000132768
0	155329	98.620743251159	0.000796608
0	155336	98.623664050478	0.000132768
0	155424	98.68533649508	0.000132768
0	155593	98.767366293927	0.000265536
0	155811	98.834208967803	0.000265536
0	155872	98.91651841349	0.001062144
0	155910	99.007286601053	0.000796608
0	155976	99.02732605297	0.000796608
0	156057	99.098679765708	0.000531072
0	156080	99.128040911801	0.00066384
0	156199	99.174035234605	0.000398304
0	156314	99.238800641971	0.00066384
0	156375	99.253138108192	0.000132768
0	156382	99.262131966958	0.000132768
0	156413	99.280076360123	0.000929376
0	156519	99.378007673003	0.000531072
0	156542	99.389963816389	0.00066384
0	156573	99.39602046194	0.000929376
0	156623	99.428179429118	0.000531072
0	156638	99.430951512776	0.000398304
0	156668	99.478398990271	0.000265536
0	156683	99.49045268495	0.000398304
0	156698	99.510626742921	0.000398304
0	156741	99.513891868795	0.00132768
0	156948	99.612439760557	0.00066384
0	156959	99.615532460904	0.000265536
0	157059	99.669682461629	0.00066384
0	157156	99.681507653841	0.000531072
0	157695	99.919998366827	0.000398304
0	157710	99.941685310458	0.000398304
0	157832	100.007491917142	0.000265536
0	157913	100.11302813254	0.000265536
0	157960	100.149024843039	0.001062144
0	157994	100.155356555717	0.000398304
0	158035	100.18168774973	0.000265536
0	158085	100.224522465739	0.000398304
0	158112	100.242379553041	0.000796608
0	158193	100.349631883369	0.00066384
0	158223	100.379749659275	0.000796608
0	158423	100.453912682101	0.001062144
0	158553	100.613566011605	0.00066384
0	158692	100.692442058686	0.000796608
0	158750	100.698370497336	0.00066384
0	158811	100.78139212964	0.001062144
0	158892	100.866527845266	0.000265536
0	158923	100.872115663081	0.000929376
0	159000	100.926919260726	0.001062144
0	159175	101.161706960932	0.000398304
0	159384	101.240527938699	0.000796608
0	159472	101.325851891291	0.000531072
0	159499	101.364417092111	0.000796608
0	159572	101.396165243289	0.000265536
0	159646	101.468970150012	0.001062144
0	159711	101.479782338608	0.000398304
0	159803	101.582632261832	0.001062144
0	159818	101.589275632921	0.000398304
0	159879	101.671535145023	0.000796608
0	159886	101.6755827141	0.000132768
0	160009	101.754605848885	0.000929376
0	160044	101.758018360863	0.001062144
0	160105	101.785456219729	0.000398304
0	160163	101.791145290735	0.001194912
0	160170	101.796102933356	0.000132768
0	160286	101.878881121575	0.000132768
0	160348	101.92479297352	0.000929376
0	160406	101.952240028734	0.000796608
0	160581	102.06360872667	0.001062144
0	160611	102.081753962279	0.000132768
0	160646	102.085051016193	0.001062144
0	160711	102.131566083232	0.000398304
0	160750	102.138756743966	0.001194912
0	160865	102.231183471148	0.001194912
0	161016	102.335162118158	0.000132768
0	161062	102.344508252485	0.000796608
0	161233	102.395462542069	0.001062144
0	161310	102.417462282798	0.001194912
0	161371	102.428400404025	0.000265536
0	161433	102.433400532047	0.000398304
0	161464	102.437621592799	0.000929376
0	161495	102.450068941149	0.000929376
0	161514	102.458605338132	0.000531072
0	161675	102.562773504913	0.001062144
0	161829	102.610636386148	0.001062144
0	161917	102.666364932263	0.000531072
0	161932	102.6836146708	0.000398304
0	162001	102.703917780178	0.001194912
0	162047	102.71238164838	0.000265536
0	162101	102.722099805237	0.001062144
0	162158	102.756105266715	0.00066384
0	162235	102.769173222398	0.000531072
0	162316	102.803985552412	0.001062144
0	162388	102.825697619979	0.000398304
0	162522	102.926721642577	0.00066384
0	162746	103.094686616775	0.00066384
0	162776	103.125235187962	0.00066384
0	162872	103.169957979854	0.000929376
0	162979	103.251294528187	0.000265536
0	162989	103.252728385228	0.000132768
0	163105	103.311701247504	0.000796608
0	163135	103.359989686207	0.000132768
0	163223	103.433043619597	0.000531072
0	163242	103.454890657401	0.000531072
0	163257	103.471444945286	0.000398304
0	163288	103.474075866832	0.000929376
0	163303	103.548527974556	0.000398304
0	163418	103.603009314048	0.000265536
0	163445	103.620750380344	0.000796608
0	163452	103.629097703311	0.000132768
0	163836	103.89410411464	0.000796608
0	163994	103.978942457599	0.000398304
0	164059	104.016871539192	0.000398304
0	164094	104.044454575135	0.001062144
0	164284	104.199455888617	0.000531072
0	164314	104.269545831443	0.000531072
0	164329	104.275371935691	0.000398304
0	164383	104.337992261692	0.000531072
0	164440	104.384475427057	0.000929376
0	164471	104.408437251864	0.000929376
0	164474	104.42027517499	0
0	164597	104.440306461691	0.000531072
0	164692	104.553795044314	0
0	164880	104.661602779031	0.000796608
0	164919	104.722125829054	0.001194912
0	164945	104.725184128226	0
0	165040	104.764687975629	0.000132768
0	165063	104.784298894956	0.00066384
0	165139	104.881868743352	0.000398304
0	165162	104.891042064408	0.00066384
0	165228	104.899513778326	0.000796608
0	165251	104.902041764046	0.00066384
0	165282	104.904881646793	0.000929376
0	165324	104.935562784518	0.000531072
0	165481	105.031083066009	0.000929376
0	165563	105.050245847121	0.000398304
0	165635	105.081780864525	0.000531072
0	165658	105.104927586216	0.00066384
0	165669	105.141163398466	0.000265536
0	165773	105.2027209061	0.000265536
0	165800	105.203913207787	0.000796608
0	165896	105.251022742365	0.000929376
0	165949	105.310708959463	0.001062144
0	166087	105.410205681102	0.00066384
0	166110	105.426495281547	0.00066384
0	166267	105.510190668687	0.000531072
0	166331	105.553925928049	0.000398304
0	166502	105.595257925369	0.00132768
0	166533	105.599973244765	0.000929376
0	166572	105.627876412347	0.001194912
0	166664	105.707296727328	0.000531072
0	166738	105.713435123518	0.00066384
0	166741	105.71348066998	0.000265536
0	166923	105.748709435955	0.000531072
0	167011	105.834572359694	0.00132768
1	69	0.074216427465	0.000531072
1	209	0.127467625438	0.001593216
1	269	0.236352916911	0.000531072
1	314	0.319019980842	0.00066384
1	357	0.343483426518	0.00132768
1	412	0.345957954458	0.001725984
1	520	0.460443049255	0.001194912
1	622	0.558659567684	0.001194912
1	779	0.643169620678	0.001460448
1	890	0.745560083854	0.001194912
1	951	0.787997747982	0.000796608
1	1051	0.8402294609	0.000796608
1	1090	0.873516107042	0.001194912
1	1097	0.898693156484	0.000132768
1	1116	0.923754203471	0.000531072
1	1143	0.944412670688	0.000796608
1	1235	1.002692552489	0.001062144
1	1285	1.037299519662	0.000398304
1	1366	1.08721425088	0.001194912
1	1439	1.158606454325	0.001194912
1	1701	1.323575424895	0.001593216
1	1748	1.354417557895	0.001460448
1	1830	1.423090664094	0.001725984
1	1984	1.494727286148	0.00066384
1	2080	1.51786365399	0.00132768
1	2139	1.542026129935	0.001858752
1	2174	1.569958261623	0.001062144
1	2209	1.588653732044	0.001062144
1	2274	1.614931450893	0.000929376
1	2312	1.647288255538	0.000929376
1	2327	1.672609504325	0.000398304
1	2385	1.722736918606	0.001194912
[...]
2	126330	81.049494989603	0.000265536
2	126361	81.052417483244	0.000929376
2	126477	81.105538457331	0.000531072
2	126500	81.108970507262	0.00066384
2	126538	81.142463955744	0.000531072
2	126684	81.18964279195	0.00066384
2	126715	81.192978590036	0.000929376
2	126750	81.213541894086	0.001062144
2	126773	81.217819565841	0.00066384
2	127127	81.37835228794	0.001062144
2	127149	81.389998927803	0.000398304
2	127179	81.419249987552	0.000398304
2	127198	81.428996735039	0.000531072
2	127244	81.475354870339	0.000929376
2	127411	81.64143715946	0.001194912
2	127485	81.672157864183	0.001062144
2	127527	81.684521657728	0.000398304
2	127542	81.685015072271	0.001062144
2	127580	81.699686443476	0.000531072
2	127599	81.713350876982	0.000531072
2	127614	81.724223983538	0.000398304
2	127629	81.726015376539	0.000398304
2	127768	81.812612725921	0.000398304
2	127795	81.813810235312	0.000796608
2	127861	81.854509737488	0.000796608
2	128030	81.926384498308	0.000398304
2	128045	81.965175183149	0.000398304
2	128067	81.981203785758	0.000531072
2	128113	82.036708027725	0.000531072
2	128229	82.057700816295	0.000796608
2	128272	82.080849670404	0.00066384
2	128283	82.081146619229	0.000929376
2	128349	82.10552867069	0.000265536
2	128379	82.136864648103	0.00066384
2	128421	82.150945661446	0.000398304
2	128596	82.215903571071	0.000531072
2	128866	82.408560643334	0.000398304
2	128916	82.45676932193	0.000265536
2	128947	82.458188510821	0.000929376
2	128974	82.482354603221	0.000796608
2	129063	82.517687013557	0.000796608
2	129156	82.541375364753	0.000929376
2	129277	82.559843474319	0.001062144
2	129466	82.658937556106	0.00066384
2	129667	82.718201371738	0.000398304
2	129735	82.863472920994	0.000929376
2	129793	82.9097307946	0.000531072
2	129847	82.923820051236	0.001194912
2	129858	83.022426627274	0.000265536
2	129943	83.080846796424	0.00132768
2	130074	83.131601495162	0.000398304
2	130089	83.133930940597	0.000398304
2	130138	83.168194613022	0.000398304
2	130280	83.257708792359	0.000398304
2	130287	83.267255673426	0.000132768
2	130314	83.278956549017	0.000796608
2	130375	83.343117104623	0.000796608
2	130424	83.392073040364	0.000531072
2	130435	83.406294095379	0.000265536
2	130531	83.443731288808	0.000929376
2	130570	83.475770103441	0.001194912
2	130573	83.482898634623	0
2	130696	83.540139416373	0.000796608
2	130723	83.560927840263	0.000796608
2	130793	83.584887313952	0.000929376
2	130878	83.618961794747	0.001062144
2	131206	83.839699046293	0
2	131341	83.940328351596	0.000796608
2	131352	83.96811812431	0.000265536
2	131386	83.980139520924	0.00066384
2	131466	84.075906921938	0.00066384
2	131481	84.113840619431	0.000398304
2	131535	84.149332639397	0.00066384
2	131620	84.182151164841	0.000398304
2	131678	84.202192892015	0.000929376
2	131685	84.222770585862	0.000132768
2	131724	84.238142072912	0.00066384
2	131746	84.258141216432	0.000398304
2	131749	84.258977135831	0
2	131780	84.266539911145	0.000929376
2	131875	84.309540955879	0.000531072
2	131905	84.312622192447	0
2	131920	84.322974144394	0.000398304
2	132044	84.408893732202	0.000796608
2	132047	84.408976189667	0.000398304
2	132062	84.442917975663	0.000398304
2	132240	84.598223661194	0.001062144
2	132263	84.600501515547	0.00066384
2	132278	84.602951783195	0.000398304
2	132367	84.658623796525	0.000531072
2	132378	84.658937899196	0.000531072
2	132471	84.667558805762	0.001194912
2	132501	84.698862239918	0.000398304
2	132524	84.699812896758	0.00066384
2	132535	84.702946901167	0.000265536
2	132750	84.800884898935	0.000531072
2	132789	84.802586493306	0.000796608
2	132824	84.825652396387	0.001062144
2	132873	84.850398538256	0.000265536
2	132915	84.883694692057	0.000398304
2	133212	84.99701184107	0.000132768
2	133324	85.025843123767	0.00066384
2	133342	85.04288656742	0.000265536
2	133384	85.060285715376	0.000132768
2	133442	85.109895002455	0.00066384
2	133473	85.11541620356	0.000929376
2	133592	85.172155586715	0.000796608
2	133642	85.177901097153	0.001062144
2	133684	85.222048716816	0.001194912
2	133836	85.269323926882	0.000531072
2	133871	85.282281280225	0.001062144
2	133934	85.301811772909	0.00066384
2	134090	85.434934868152	0.00066384
2	134178	85.471720188506	0.000398304
2	134205	85.512457293065	0.000796608
2	134327	85.592125228158	0.000398304
2	134419	85.69298124123	0.000265536
2	134488	85.704163643102	0.00066384
2	134573	85.79571597968	0.000531072
2	134665	85.840640557436	0.000531072
2	134711	85.857076073706	0.00066384
2	134830	85.943747864019	0.000929376
2	134849	85.962530147119	0.000531072
2	134876	85.967403659696	0.000796608
2	134895	85.978599286084	0.000531072
2	135093	86.087373216525	0.001062144
2	135127	86.108404473104	0
2	135150	86.110718242322	0.00066384
2	135161	86.124412366599	0.000265536
2	135195	86.159545318984	0.000132768
2	135438	86.252699703567	0.000531072
2	135483	86.292609835632	0.000531072
2	135587	86.391192835589	0.00066384
2	135652	86.429451192822	0.000265536
2	135798	86.517625963261	0.000929376
2	135906	86.545313998825	0.000531072
2	135952	86.560342304232	0.000265536
2	135962	86.561937218637	0.000132768
2	135992	86.590635825715	0.00066384
2	136077	86.624512318108	0.000398304
2	136092	86.650835334869	0.000398304
2	136322	86.76559601018	0.000531072
2	136357	86.830528248698	0.001062144
2	136364	86.836806256648	0.000132768
2	136379	86.84305247392	0.000398304
2	136390	86.867607505557	0.000265536
2	136413	86.8710912332	0.00066384
2	136454	86.921980682325	0.000398304
2	136473	86.923364818922	0.000531072
2	136646	86.980355303996	0.000796608
2	136691	87.017825015535	0
2	136722	87.038970085464	0.000929376
2	136741	87.04773315546	0.000531072
2	136772	87.124343115493	0.000929376
2	136951	87.177110778838	0.00066384
2	136988	87.245421043411	0.000265536
2	137030	87.290748112424	0.000929376
2	137099	87.34340734655	0.00066384
2	137114	87.355831442267	0.000398304
2	137206	87.405158387566	0.000796608
2	137318	87.420528120789	0.000531072
2	137380	87.427338130375	0.000398304
2	137411	87.429623618195	0.000929376
2	137535	87.490618631895	0.000929376
2	137558	87.491373415248	0.00066384
2	137628	87.512371271271	0.000796608
2	137711	87.598863967157	0
2	137746	87.637734347976	0.001062144
2	137780	87.678273528789	0.00066384
2	137815	87.691295603821	0.001062144
2	138055	87.849317877895	0.000132768
2	138354	87.987005562056	0.000531072
2	138455	88.044998808551	0.000929376
2	138513	88.062826715394	0.000265536
2	138536	88.078956288747	0.00066384
2	138637	88.111352742447	0.000796608
2	138706	88.155492671836	0.000398304
2	138807	88.17561845696	0.001194912
2	138984	88.354582658524	0.000929376
2	138991	88.371855705302	0.000132768
2	139242	88.571907082328	0.001062144
2	139269	88.574408951868	0.000796608
2	139303	88.619927407082	0.000929376
2	139543	88.707862629066	0.001062144
2	139566	88.735321897826	0.00066384
2	139813	88.950236004611	0.00066384
2	139848	88.9526874974	0.001062144
2	139921	89.011947144339	0.000132768
2	140001	89.075403001351	0.00066384
2	140016	89.077612832562	0.000398304
2	140081	89.14187904009	0.000132768
2	140100	89.181775992266	0.000531072
2	140251	89.212396675942	0.00132768
2	140321	89.218004201179	0.000796608
2	140371	89.226844527581	0.00066384
2	140456	89.272940282671	0.000929376
2	140582	89.331381733534	0.000398304
2	140791	89.413220164654	0.000796608
2	140951	89.493501094542	0.000265536
2	141067	89.534539621281	0.00066384
2	141216	89.653746227824	0.000265536
2	141469	89.834504260259	0.001062144
2	141562	89.884232696625	0.000531072
2	141697	89.991613320534	0.000531072
2	141728	90.001036719933	0.000929376
2	141859	90.077447866803	0.001062144
2	141882	90.110900618813	0.00066384
2	141901	90.166289089536	0.000531072
2	141983	90.187459467852	0.000796608
2	142130	90.215043818135	0.000265536
2	142277	90.276699074137	0.000531072
2	142300	90.280521828197	0.00066384
2	142388	90.328790437509	0.000398304
2	142450	90.345722690981	0.001194912
2	142481	90.348382700861	0.000398304
2	142484	90.348445987663	0.000531072
2	142534	90.38174552955	0.00066384
2	142610	90.470509082579	0.000265536
2	142690	90.527188812789	0.000796608
2	142821	90.624463057287	0.000531072
2	142852	90.652714379488	0.000929376
2	142897	90.709124658106	0.000531072
2	142920	90.726204009202	0.00066384
2	142943	90.746927301911	0.00066384
2	142978	90.779957302776	0.001062144
2	143047	90.817162787091	0.000531072
2	143070	90.820721730157	0.00066384
2	143101	90.846014542722	0.000929376
2	143159	90.907144461147	0.00066384
2	143194	90.918129417866	0.001062144
2	143225	90.934211132147	0.000929376
2	143286	90.999329169842	0.001062144
2	143301	90.999741446798	0.000398304
2	143545	91.06803099114	0.000796608
2	143626	91.091538441208	0.000398304
2	143640	91.105155327937	0.000265536
2	143705	91.142079393946	0.000132768
2	143759	91.193608443132	0.000398304
2	143858	91.229207366857	0.000796608
2	143955	91.265397913243	0.00066384
2	143985	91.322018792757	0.000398304
2	144092	91.389850082664	0.000132768
2	144123	91.401387630639	0.000929376
2	144272	91.519037368914	0.000796608
2	144330	91.543956486428	0.000398304
2	144407	91.596749003294	0.000796608
2	144426	91.622538831127	0.000531072
2	144437	91.670918008871	0.000265536
2	144561	91.706852687387	0.000531072
2	144576	91.717695132644	0.000398304
2	144583	91.730974746239	0.000132768
2	144621	91.764774911956	0.00066384
2	144788	91.864484603227	0.001062144
2	144894	91.988844396034	0.00066384
2	144905	91.9906579914	0.000265536
2	145090	92.0389541376	0.000265536
2	145117	92.044854658726	0.000796608
2	145197	92.072623849936	0.000265536
2	145285	92.105784951868	0.000398304
2	145365	92.141656116763	0.000398304
2	145372	92.143452005835	0.000132768
2	145414	92.183884816998	0.000531072
2	145483	92.22930081692	0.000531072
2	145663	92.36835243294	0.000398304
2	145674	92.368904067006	0.000265536
2	145704	92.398174981386	0.000531072
2	145762	92.399897346335	0.00066384
2	145851	92.514267934782	0.000265536
2	145874	92.526182816211	0.00066384
2	145920	92.57247127215	0.000265536
2	146101	92.642122504283	0.000929376
2	146120	92.642851420913	0.000531072
2	146194	92.69580569523	0.000929376
2	146260	92.732141498328	0.00066384
2	146325	92.788926730743	0.000531072
2	146387	92.815781448177	0.001062144
2	146398	92.831821898243	0.000265536
2	146428	92.89129887131	0.000265536
2	146588	93.058036183978	0.001062144
2	146653	93.094319038205	0.000531072
2	146660	93.136240285505	0.000132768
2	146710	93.161231157338	0.000132768
2	146759	93.196030726267	0.000398304
2	146864	93.34463854184	0.001062144
2	147041	93.471874683133	0.000265536
2	147052	93.480922020597	0.000265536
2	147134	93.49855064751	0.001194912
2	147200	93.519725111675	0.000929376
2	147328	93.611626004246	0.000796608
2	147487	93.702265738925	0.00066384
2	147830	93.967701041364	0.000929376
2	147853	93.981570156955	0.00066384
2	147868	94.015098474396	0.000398304
2	148036	94.165168166667	0.000398304
2	148183	94.245333260144	0.001062144
2	148432	94.437049398354	0.000265536
2	148568	94.504553184074	0.000531072
2	148641	94.521776244082	0.00066384
2	148699	94.540632076374	0.000796608
2	148726	94.565023429249	0.000796608
2	148788	94.589279689439	0.001062144
2	148819	94.590863406428	0.000929376
2	148842	94.601558269829	0.00066384
2	148925	94.623799501465	0
2	148948	94.640608468433	0.00066384
2	148971	94.656627232348	0.00066384
2	149087	94.714655497709	0.000531072
2	149565	95.008261443907	0.000265536
2	149630	95.034473056515	0.000531072
2	149684	95.049366557217	0.000265536
2	149812	95.145665252133	0.000398304
2	149950	95.200884825222	0.000531072
2	150040	95.235809149769	0.000929376
2	150195	95.286974433592	0.000265536
2	150369	95.380505656538	0.000398304
2	150384	95.385999752959	0.000398304
2	150448	95.412573963772	0.000398304
2	150513	95.496602662527	0.000265536
2	150531	95.514621097444	0.000265536
2	150699	95.584118054068	0.000265536
2	150814	95.642279097985	0.00066384
2	150930	95.676266860144	0.000796608
2	151046	95.758727853546	0.000531072
2	151115	95.874697837957	0.00066384
2	151165	95.883264251469	0.001194912
2	151176	95.907014219539	0.000265536
2	151288	95.929722708635	0.000265536
2	151323	95.935858465891	0.001062144
2	151516	96.001941421534	0.00066384
2	151646	96.101609687888	0.000398304
2	151649	96.101617374312	0.000531072
2	151719	96.138008166303	0.00066384
2	151730	96.150331483405	0.000265536
2	151757	96.154151456053	0.000796608
2	151792	96.165235480711	0.001062144
2	152023	96.253628512571	0.000531072
2	152042	96.269136407394	0.000531072
2	152110	96.327914169996	0.00066384
2	152199	96.45628848599	0.000265536
2	152218	96.462356527064	0.000531072
2	152237	96.477258090835	0.000531072
2	152252	96.513327982515	0.000398304
2	152275	96.52166236948	0.00066384
2	152329	96.536356748712	0.000929376
2	152356	96.548518533197	0.000796608
2	152370	96.598051134217	0
2	152894	96.963777520984	0.000929376
2	152924	97.026871574652	0.000531072
2	152990	97.034145056177	0.00066384
2	153024	97.073995132083	0.000398304
2	153129	97.082598439171	0.00066384
2	153167	97.087393012638	0.000265536
2	153217	97.097051529668	0.000796608
2	153279	97.13926783602	0.000531072
2	153550	97.225238035092	0.000398304
2	153588	97.227741257328	0.000531072
2	153595	97.240935392837	0.000132768
2	153799	97.475117695345	0.00066384
2	153950	97.625735321033	0.00066384
2	153980	97.657353182847	0.000398304
2	154095	97.747816666363	0.000265536
2	154110	97.771114242418	0.000398304
2	154148	97.796732712866	0
2	154175	97.804828666316	0.000796608
2	154190	97.81208133119	0.000398304
2	154333	97.884649397383	0.001194912
2	154348	97.917498569229	0.000398304
2	154566	98.041382059054	0.000265536
2	154767	98.208847597957	0.00066384
2	154790	98.214415972746	0.00066384
2	154991	98.363424787131	0.000796608
2	155086	98.46967075113	0.000796608
2	155101	98.480119593194	0.000398304
2	155252	98.561785136429	0.00066384
2	155279	98.568919898187	0.000796608
2	155302	98.593397958761	0.00066384
2	155402	98.63968349006	0.000398304
2	155417	98.648869177554	0.000398304
2	155502	98.727078000382	0.001062144
2	155540	98.749844234531	0.000796608
2	155571	98.756958009813	0.000929376
2	155582	98.762820182321	0.000265536
2	155655	98.787631156521	0.000531072
2	155826	98.900015418332	0.000398304
2	155837	98.912510169286	0.000265536
2	156038	99.062755628026	0.001062144
2	156091	99.134336907039	0.000265536
2	156184	99.164848634136	0.000796608
2	156303	99.238511819329	0.000796608
2	156357	99.245618586737	0.001062144
2	156436	99.282712586393	0.00066384
2	156459	99.305097531328	0.00066384
2	156474	99.351478397235	0.000398304
2	156497	99.358339281859	0.00066384
2	156500	99.375100588081	0
2	156604	99.42409424727	0.000929376
2	156657	99.441038841209	0.000531072
2	156802	99.585490761531	0.000531072
2	156813	99.589506532021	0.000265536
2	156832	99.590664635968	0.000531072
2	156863	99.591754388296	0.000929376
2	157021	99.629377318478	0.000132768
2	157125	99.680207118685	0.001062144
2	157315	99.777519530555	0.00066384
2	157342	99.781560186909	0.000796608
2	157384	99.785656663317	0.000398304
2	157559	99.825643343994	0.00066384
2	157680	99.880051934473	0.000796608
2	157741	99.949992492007	0.000929376
2	157772	99.953279253666	0.000929376
2	157791	99.982472290897	0.000531072
2	157802	99.99643667076	0.000265536
2	157821	100.002809572327	0.000531072
2	158005	100.15990528341	0.000265536
2	158123	100.264011559041	0.000265536
2	158142	100.342655802461	0.000531072
2	158249	100.403646846183	0.000398304
2	158361	100.447556134152	0.000929376
2	158388	100.450615730606	0.000796608
2	158473	100.539484680225	0.000132768
2	158492	100.542675971562	0.000531072
2	158530	100.600851094185	0.000132768
2	158776	100.734476051402	0
2	158854	100.811668362102	0.00132768
2	158965	100.8909976206	0.00066384
2	159272	101.216030509632	0.000531072
2	159357	101.239642165356	0.000265536
2	159403	101.252983566864	0.000531072
2	159434	101.311035010313	0.000929376
2	159561	101.392436911205	0.001062144
2	159653	101.469480086012	0.000132768
2	159730	101.509774778488	0.000531072
2	159741	101.512114176592	0.000265536
2	159829	101.651451415335	0.000265536
2	159909	101.698481713867	0.00066384
2	159916	101.728969661483	0.000132768
2	159947	101.743626826391	0.000929376
2	160051	101.768039109183	0.000132768
2	160193	101.798775016909	0.00066384
2	160204	101.825383634085	0.000265536
2	160238	101.847455894328	0.000265536
2	160257	101.851677366461	0.000531072
2	160268	101.857254626825	0.000265536
2	160317	101.893014285857	0.000929376
2	160527	102.043785126728	0.001062144
2	160546	102.058907187351	0.000531072
2	160604	102.075408922236	0.00066384
2	160696	102.118628482091	0.000265536
2	160800	102.20658079737	0.000929376
2	160811	102.215022470668	0.000265536
2	160826	102.220823742827	0.000398304
2	161035	102.34229149619	0.000531072
2	161108	102.351055666207	0.00066384
2	161252	102.398762216056	0.000531072
2	161291	102.416911309789	0.000531072
2	161345	102.419793880648	0.001062144
2	161360	102.426693874076	0.000398304
2	161560	102.490435484522	0.000531072
2	161602	102.520496159188	0.000796608
2	161621	102.539534413685	0.000531072
2	161686	102.571417091977	0.000265536
2	161709	102.583243285997	0.00066384
2	161728	102.593478328789	0.000531072
2	161848	102.613151044409	0.000531072
2	161962	102.702400953696	0.000398304
2	162098	102.72208882675	0.000531072
2	162112	102.747722931049	0.000265536
2	162135	102.750432771758	0.00066384
2	162177	102.764611696477	0.000531072
2	162216	102.766314335085	0.001194912
2	162254	102.77233095652	0.000531072
2	162373	102.813205841795	0.000531072
2	162438	102.851459208755	0.000265536
2	162457	102.857773405671	0.000531072
2	162472	102.876988167903	0.000398304
2	162545	102.944336742252	0.00066384
2	162606	102.984235760211	0.000132768
2	162672	103.02939178644	0.000531072
2	162753	103.107849998202	0.000132768
2	162799	103.131037984834	0.00066384
2	162826	103.139106401975	0.000796608
2	162841	103.168554001524	0.000398304
2	162930	103.211474625463	0.000796608
2	162941	103.236415616418	0.000265536
2	163032	103.276065082748	0.000265536
2	163047	103.298710908793	0.000398304
2	163128	103.347618436795	0.00066384
2	163154	103.378965626505	0.000531072
2	163369	103.580775686837	0.000929376
2	163396	103.583114876537	0.000796608
2	163407	103.597421867773	0.000265536
2	163491	103.648671201198	0.001194912
2	163541	103.682888469635	0.000265536
2	163560	103.701989418143	0.000531072
2	163665	103.781077892926	0.000929376
2	163914	103.928176142388	0.000398304
2	163972	103.933227121287	0.000929376
2	163979	103.947775243238	0.000132768
2	164044	103.993060615997	0.00066384
2	164242	104.154474845655	0.000398304
2	164295	104.244455309915	0.000265536
2	164364	104.309463886922	0.001062144
2	164398	104.351502448008	0.000398304
2	164409	104.365594739711	0.000265536
2	164551	104.432961145886	0.000398304
2	164578	104.438579487227	0.000796608
2	164620	104.448513029679	0.00066384
2	164666	104.514645848157	0.000265536
2	164703	104.612559909972	0.000265536
2	164718	104.618631814557	0.000398304
2	164976	104.729603282879	0.000398304
2	164979	104.729639136605	0.000531072
2	165113	104.87917984252	0.00066384
2	165124	104.880147563947	0.000265536
2	165343	104.941798793995	0.000531072
2	165362	104.949443590158	0.000531072
2	165416	104.9851316296	0.000132768
2	165443	105.006097626709	0.000796608
2	165616	105.064947979411	0.000265536
2	165762	105.201364181846	0.000796608
2	165819	105.216028468559	0.000531072
2	165914	105.28280911076	0.000398304
2	165987	105.339149816406	0.000796608
2	166064	105.399689484139	0.000132768
2	166148	105.472346933248	0.000531072
2	166163	105.497945454195	0.000398304
2	166174	105.498237476619	0.000265536
2	166282	105.521988298757	0.000398304
2	166305	105.537255194847	0.00066384
2	166316	105.543304664327	0.000265536
2	166373	105.568174043371	0.00066384
2	166459	105.587891118467	0.001194912
2	166614	105.678615949545	0.000929376
2	166645	105.686333945108	0.000265536
2	166707	105.711798679011	0.00132768
2	166807	105.718496409515	0.001062144
2	166881	105.733796726417	0.00066384
2	166904	105.741784271112	0.00066384
2	166968	105.789381946217	0.000132768
2	167073	105.86225656733	0.000796608
2	167115	105.88761465043	0.00066384
2	167154	105.929753762554	0.001194912
2	167181	105.934208253969	0.000796608
2	167250	105.942042154252	0.000796608

